28
Coordinates from ORCA-job 3556optt
  Br  2.84945416594515      0.66315806188612      2.56366412327068
  C   3.41287504136392      0.09084499756048      0.82089020111333
  C   3.76485490496665     -1.29243197280772      0.60739249839073
  C   3.02092563608554     -2.37951271420673      1.38215783386222
  C   1.60645325751526     -2.11898083456093      0.86321987618306
  C   1.35876276508219     -2.41694948011660     -0.61161279444301
  C   -0.02360637544595     -1.80325519701337     -0.71000113849052
  C   -0.60546848366668     -2.12143333511192      0.70051780122640
  O   0.45331712286065     -2.72740923720331      1.45431109687539
  O   0.19057377987608     -0.41657857994528     -1.07658678657244
  C   0.26258604035108      0.62520826014167     -0.21555389806255
  O   -0.69134481382383      1.00592733099306      0.42594788551172
  N   1.46904553947728      1.29441893237920     -0.23736387379080
  C   2.76175666249012      0.66702517756909     -0.34195891074037
  C   3.34578844188293      0.32208359174084     -1.54321363574180
  C   4.30060366796900     -0.70925365245609     -1.54455329573502
  N   4.31204250495904     -1.63159315402016     -0.53553095124686
  H   3.05501535123964     -2.24532231715075      2.46413102519028
  H   3.39562424693516     -3.36471946800212      1.10568044597650
  H   1.45628552035465     -1.05305050703012      1.02882691326538
  H   1.34010083389783     -3.50164292310480     -0.74304659813479
  H   2.04833838794583     -1.96156589343828     -1.31390466101106
  H   -0.65291084914053     -2.19309082539334     -1.50699037123401
  H   -1.42562298525331     -2.83560669162816      0.63058441465960
  H   -0.95220558975545     -1.21060064354635      1.19141509100949
  H   1.42819018638467      2.04856653038073      0.43679431794731
  H   2.97369848746102      0.73836562257037     -2.47364841454852
  H   4.83086655204202     -0.98060107848552     -2.44856819473032
