30
Coordinates from ORCA-job 3561optt
  Br  0.99629591041184      0.70863611173992      1.20278321040853
  C   3.12791817213128      0.16108175592638      0.04194625656951
  C   3.62149753471761     -1.11581541151655      0.13103934458323
  C   2.73072106932365     -2.32727543601240      0.20011956368894
  C   3.51472461122495     -3.57734334606485     -0.20883410702875
  C   3.78177196033302     -3.62625786765848     -1.72077394662031
  C   2.50887213321586     -3.95400699674381     -2.49662252981860
  C   1.85796096760506     -5.20416640386694     -1.92696514185454
  O   1.60345949690085     -5.07365051248921     -0.54423526117640
  C   2.78724418994597     -4.85816135676262      0.19294611378123
  C   4.83479115913959     -3.52505474679684      0.55173039932352
  O   5.63958636725331     -2.41789813142434      0.18775871264605
  C   5.03042435637278     -1.19999770559884      0.14598438069035
  N   5.87376904869968     -0.20131952078000      0.08497152504080
  C   5.38782447777717      1.06845520101402      0.02111114498310
  O   6.06364620627082      2.08401600295184     -0.02497488261603
  N   3.98090959120843      1.18624391287839      0.00303841056590
  H   1.85141857764210     -2.17461521139927     -0.42505194072966
  H   2.34922249296137     -2.45772332654110      1.21914610119177
  H   4.53208887461612     -4.40230189821672     -1.91701816660166
  H   4.20744394524549     -2.67879936842487     -2.05474794109858
  H   2.73382173429402     -4.10986945631328     -3.55447901484325
  H   1.80269796563356     -3.12373238938539     -2.43198992931288
  H   2.51501660630744     -6.07273355820235     -2.09302097419674
  H   0.89553070835103     -5.40699562678206     -2.39700305590322
  H   3.46220117316259     -5.71904439529669      0.05229246124854
  H   2.49367068388195     -4.81870137078531      1.24356404091796
  H   5.44527293814205     -4.40515966949268      0.33937422307311
  H   4.63684235593411     -3.48929067448092      1.63059709598411
  H   3.62335469129615      2.13148139652506     -0.02068609289601
