29
Coordinates from ORCA-job 3564optt
  Br  0.69142220733434      0.13752158347207      0.50459610418711
  C   2.95765924346484      0.16202021098372     -0.56620245831926
  C   3.62385877285410     -1.02392020181208     -0.77389065683730
  C   2.87336927805279     -2.25420049270676     -1.21572343863821
  C   3.01547058418013     -3.48402504559805     -0.31793471877879
  C   3.02271778315722     -3.15493292040109      1.17994958824035
  C   4.51602058201809     -3.07008224749233      1.52651875034457
  C   4.95500901918002     -3.99167321596402      2.63175248885147
  O   4.25239580307326     -4.71911597633041      3.27825830654740
  C   5.24050236700654     -3.46230826348215      0.20637404887530
  C   5.82262057359933     -2.26302040943154     -0.55391913699335
  C   5.00647964842311     -0.99260532440104     -0.47173386179758
  N   5.67196243967165      0.06933987661093     -0.07131464395561
  C   5.01208410252300      1.26918593428480      0.06424087965212
  N   5.54009430730200      2.39233475692325      0.39374519213560
  N   3.63189532632966      1.24016629521089     -0.16921378055876
  O   4.26016551818092     -4.15547201551690     -0.53682655036779
  H   3.15943934437294     -2.55931894128558     -2.22867823866304
  H   1.81721656051836     -1.97835419529551     -1.24132269200452
  H   2.24090387071332     -4.20589393097611     -0.57820073764905
  H   2.56963452131864     -3.96186091832720      1.75448489446173
  H   2.49009971933368     -2.22658567513682      1.38547307472180
  H   4.82606147386379     -2.06376349434325      1.82616863193783
  H   6.04810463087707     -3.96755009929294      2.82907369054163
  H   6.05159215941228     -4.17505970582898      0.38139172957412
  H   5.92897198441069     -2.56797538604613     -1.59955198463246
  H   6.81453920063233     -2.03021125819500     -0.16542573804713
  H   6.53368003183413      2.23814209861831      0.53716114349866
  H   3.13102894636157      2.09621896175999      0.02675011367315
