30
Coordinates from ORCA-job 3570optt
  Br  0.96228798897462     -0.25269232276859     -0.82440272282842
  C   2.81346637743660     -0.20059192878526     -0.24736336502305
  C   3.53761956804137     -1.42782025490549     -0.10543223911123
  C   2.91409367961529     -2.71296482963934      0.36472026356781
  C   3.23385750568154     -3.94514652558750     -0.49395477402535
  C   2.36254651914905     -5.16862401246532     -0.13365083518205
  C   2.11850152797791     -5.87091242200975     -1.46897501825047
  C   2.21072253934668     -4.74061215543173     -2.49113089069255
  O   1.80383977721038     -4.77972985178874     -3.63517069992397
  N   2.83496686244568     -3.71188691917291     -1.87960144788720
  C   4.71650166865860     -4.33253838838245     -0.41242146517738
  C   5.70568142273466     -3.22854881465025     -0.75183912425604
  O   5.79027456362453     -2.24759883647380      0.26384441507349
  C   4.92460390120188     -1.17123416315365      0.11912678180819
  C   5.44121359778879      0.08672677172288      0.22522890159028
  N   4.69770133283093      1.23500508254580      0.14716457363754
  C   3.39484423992480      1.03439046069686     -0.14138365715199
  H   1.82888210073703     -2.59440574703792      0.37034354471718
  H   3.21737503770160     -2.95416948166988      1.39781085926208
  H   1.41434615880703     -4.81561994951835      0.27708305395051
  H   2.84334694708386     -5.79914557185499      0.61386033482863
  H   1.15419521669398     -6.36793148929927     -1.55463536356425
  H   2.89355376454058     -6.60410304532032     -1.70557324884148
  H   2.94441817282329     -2.79909183175041     -2.30098766940931
  H   4.89187567491190     -5.18022246049217     -1.08484237754736
  H   4.93348091497101     -4.66658618537815      0.60681971946625
  H   5.45948625211902     -2.75930005647959     -1.71032740425357
  H   6.70566013550279     -3.66136354271064     -0.83511704342516
  H   6.51032795144693      0.19682763984507      0.37608358815597
  H   2.79032860001760      1.92089083191594     -0.30727668950709
