29
Coordinates from ORCA-job 3572optt
  Br  1.18441213980767      0.20675738210505     -0.22157342764955
  C   3.05777391705978     -0.03381665245456      0.01997482290372
  C   3.63059814002486     -1.33033912764667     -0.08167208344183
  C   2.77939617060753     -2.55641480826722     -0.24976736429582
  C   3.58234212168314     -3.82557558504442     -0.51535454775810
  C   2.75563480726979     -5.09161676719831     -0.34062974793029
  C   3.57537657264993     -6.31786502651579     -0.72006912222297
  C   4.97541597263527     -6.34174397862120     -0.13372406462024
  O   5.63041021725486     -7.37230824450912     -0.10234423133477
  N   5.46907343641478     -5.16397098870601      0.31299927736516
  C   4.78514035470324     -3.87529111464960      0.41223261205912
  C   5.73506324433617     -2.73743994868122      0.07487958421370
  C   5.01490660234533     -1.41414670170076      0.13998237243186
  C   5.72703698168250     -0.28271662985901      0.42114549505704
  O   5.16644465648358      0.96789427707700      0.45997083430770
  C   3.78521583025409      1.14498243018460      0.27986225327256
  O   3.38945083857636      2.29384215641748      0.36973398404804
  H   2.05559585644065     -2.41615181195835     -1.05823311964200
  H   2.16887559417016     -2.71111124880321      0.65454879369505
  H   3.96728283724212     -3.79694497489898     -1.54331997523065
  H   1.84642552020462     -5.04042006499338     -0.94419118827894
  H   2.43738610959932     -5.16087761733996      0.70486310933796
  H   3.70893652565135     -6.36245048363764     -1.80505768076488
  H   3.09868884694205     -7.25275887409337     -0.42599929500292
  H   6.40464700582695     -5.22549640562582      0.68982612857923
  H   4.42393106252390     -3.73680275781327      1.44043080059119
  H   6.13580246327587     -2.92344080906588     -0.92847342292604
  H   6.58443651297737     -2.73326096597886      0.76611582298381
  H   6.79229966135668     -0.26351465772145      0.60284338025284
