24
Coordinates from ORCA-job 3600optt
  Br  0.92929415379381     -0.15265226995140      0.07051719196504
  C   2.82647178499943     -0.05456752261808      0.06812694612569
  C   3.47202631366078      1.16870753433350      0.06783465634221
  C   3.03643882959822      2.52106368114348      0.06857393800256
  C   4.15369990554378      3.33659223097913      0.06797014131075
  C   4.41762557055041      4.71114060611584      0.06823098321217
  C   5.72803489775520      5.15166973555120      0.06746604445016
  N   6.79940651630480      4.31042510329153      0.06646566245003
  C   6.56267852757567      3.03321219034821      0.06615338217250
  N   5.30087833869052      2.49619751063157      0.06679539975527
  C   4.91921947476458      1.17739331968363      0.06661866686943
  C   5.71589191313241      0.05090832027167      0.06563035529134
  C   5.03358431201868     -1.20202958534765      0.06581804035960
  C   5.44519121886460     -2.50501534292287      0.06508500158188
  O   4.38050200547341     -3.35223340427516      0.06573009963902
  C   3.25144168247143     -2.58622575862133      0.06699506047772
  C   3.57438247337604     -1.25890387360784      0.06710917078418
  H   2.01389077375756      2.85958161921108      0.06941703072232
  H   3.59381780814453      5.41161091052335      0.06903607278189
  H   5.95866055282707      6.20952699760351      0.06766717905427
  H   7.37901963742588      2.32244781477557      0.06536291759665
  H   6.79541470608647      0.10416361416503      0.06479068423192
  H   6.41731479092347     -2.96577977985105      0.06403753414307
  H   2.31211381226120     -3.10923365143293      0.06756784068034
