29
Coordinates from ORCA-job 3606optt
  Br  1.37696992867707      0.23575147652577      1.03537915470895
  C   3.06896776828590      0.00464357693226      0.16322337257032
  C   3.63138361863019     -1.29088888665597      0.12847284647098
  C   2.98881420177959     -2.51785574378325      0.71096398123897
  C   3.83899723524582     -3.68094365919219      0.20256500695801
  C   3.58069116317878     -4.19788309081684     -1.21344132490728
  C   2.98496663048507     -4.84361067448029     -2.45577601501502
  N   4.23321979361420     -4.67329306336423     -3.26906317434980
  C   5.42875660818176     -3.98948250880413     -2.94087747943723
  O   6.18372937876545     -3.74686980003033     -3.86027124009566
  C   5.99670580350294     -3.67257882303173     -1.47697354227329
  C   5.25318746285563     -3.03395776999310     -0.22202290957998
  C   4.88468201383857     -1.57464308418964     -0.41692671956043
  C   5.69549394102465     -0.64730341530757     -1.02690517404983
  S   5.24319178815528      1.02889510709702     -1.19131077014456
  C   3.61547063450893      1.18504576319341     -0.35720379772820
  O   3.16712253639298      2.32496124386572     -0.34860132005781
  H   1.94287821292264     -2.62088609081243      0.41012924924026
  H   2.98561581862425     -2.48232262631429      1.80786404967514
  H   3.95432351612464     -4.47995636485508      0.93648277565888
  H   4.43139505153456     -4.86286279118879     -1.20970868194321
  H   3.80256044689011     -3.25870707582835     -1.71194218369911
  H   2.16060732170951     -4.30266288324296     -2.92374507040135
  H   2.73872910543686     -5.90445955277196     -2.37869307411182
  H   4.16406266741525     -4.77110485353208     -4.27144531134975
  H   6.85120285519189     -3.03519436398665     -1.70297181288684
  H   6.41827222861834     -4.63615130848690     -1.16351509395660
  H   5.97318232070872     -3.12493620376439      0.60001075676773
  H   6.66281994770031     -0.89174253318098     -1.44269649774144
