28
Coordinates from ORCA-job 3607optt
  Br  1.17921442137403      0.41667362662904     -0.10408895455280
  C   3.05558010719921      0.12771705742916      0.22237227862185
  C   3.58825270767743     -1.18531063751526      0.02137220906236
  C   2.75823900935670     -2.44160779591333      0.03291267006574
  C   3.65765187049428     -3.59806210072755     -0.38990374980724
  C   4.02633053787938     -3.48681603358344     -1.88266168623518
  C   2.89626973009542     -3.82020474592441     -2.74686368665102
  N   2.01123305562527     -4.10723670715564     -3.41818860073165
  C   3.27437956278670     -5.02523100042754     -0.04256084005019
  O   4.51651385623937     -5.74426982297964     -0.00153089128628
  C   5.59222132418311     -4.84365791333750      0.26273565184545
  C   4.92948469535844     -3.49096897536627      0.45814769011662
  O   5.71896656178847     -2.39626376027833      0.10924089347291
  C   4.99990972643438     -1.20173715675819      0.26389922983783
  C   5.70970033906705     -0.08465077355384      0.59359511258618
  N   5.16249809404452      1.16426166435436      0.73498399854872
  C   3.82630343785779      1.21387615599076      0.53142721717570
  H   1.88889974829883     -2.34506754677477     -0.62290886163817
  H   2.36179053206733     -2.67374259349847      1.04050044887912
  H   4.84504464360151     -4.16090816804267     -2.13940488841778
  H   4.34091382787369     -2.46296563056468     -2.09277670504486
  H   2.63061232127043     -5.50669404774791     -0.77939535319485
  H   2.78544458017042     -5.06341291120858      0.93736916800517
  H   6.28139331871150     -4.82150739367176     -0.58689125260469
  H   6.13812693296793     -5.17882045900484      1.14611382882725
  H   4.60455779049008     -3.39005733573053      1.50516431770065
  H   6.78255704017164     -0.17713650502996      0.72721481404316
  H   3.35691022691499      2.18880151039186      0.61812594142599
