22
Coordinates from ORCA-job 3618optt
  Br  0.86029028227846     -0.01666403777285     -0.65210925397624
  C   2.73917331176311      0.09916406638365     -0.35212267665187
  C   3.33106822381345      1.18759208213856      0.25096712671491
  C   2.53927600753115      2.34971654639550      0.81169159734342
  C   2.89861052408137      3.64894972246368      0.14410848514875
  C   4.14155069470068      4.17124340558058     -0.09307165773516
  C   5.43380602002247      3.50958313174126      0.30034521124119
  O   5.20801193219196      2.36041449922367      1.09063930445244
  C   4.72135375376669      1.27629106509740      0.37851808725438
  C   5.65856056057434      0.34153794843166     -0.13076230476546
  Br  7.51331376631725      0.73305363457142      0.06229152299674
  C   5.37600127270960     -0.85827939791987     -0.78877922463097
  O   6.12704399881583     -1.70080533672943     -1.25744530250132
  S   3.59282240032086     -1.28174949419666     -0.98424760457478
  C   4.02772687116728      5.41637828732545     -0.76175121996267
  N   2.81680196433996      5.84594243760535     -1.02835990704440
  S   1.74030408494375      4.73508769129110     -0.47805098003315
  H   2.75690662620818      2.44320944329226      1.87870048483282
  H   1.47247976517232      2.16553717372215      0.71066029260667
  H   6.03775396488625      4.18604766324413      0.90991648957983
  H   6.01994090174821      3.24455600211671     -0.58664134042737
  H   4.87220307264676      6.02819346599425     -1.06049712986778
