27
Coordinates from ORCA-job 3620optt
  Br  1.23281094437561     -0.53532829800712      1.82922228795144
  C   3.18881355450416     -0.40904442813406      0.14671193647507
  C   3.90630707936281      0.77174938502128      0.18721448046805
  C   3.10403441744150      2.06777620289961      0.49951868661181
  C   4.26338869780498      3.02886894575508      0.54732404626184
  C   5.22119301776340      2.65761212825661      1.70124090717291
  C   6.40759224283712      2.77884131166309      0.79121705625403
  O   6.33679565431291      1.66470374642040     -0.11908853591880
  C   5.32538437470866      0.66197572436333     -0.06109547910127
  N   5.89226897278107     -0.49553410372971     -0.35253471158215
  C   5.15814962713008     -1.59581559596932     -0.41707894073277
  C   3.79066196064133     -1.62501727846812     -0.16183778412360
  C   3.07898868683480     -2.86468664103824     -0.22450078096316
  C   2.51693229757610     -3.92360137568076     -0.28685046801632
  C   6.06852948338037      4.23563532059568      0.25155770520501
  N   6.88349904883178      5.16779921297124      0.00975127186247
  N   4.64791126355065      4.43108352689574      0.27972545982394
  H   2.53451415167326      1.93013681727507      1.41817296974939
  H   2.40495537482459      2.25312242123093     -0.31650640528463
  H   4.69957745150039      2.68050015134949     -0.37306202975466
  H   5.09699226935486      1.67557298533058      2.14849383736298
  H   5.18864363564670      3.42587991439087      2.47395656390738
  H   7.41722983282705      2.77489646852796      1.20503234117761
  H   5.68277351149345     -2.51199976888239     -0.67325182627702
  H   1.98695573121445     -4.84368761323582     -0.31697997777468
  H   7.83743154367167      4.81729082575749      0.07323034326544
  H   4.37666517395587      5.15427001444098      0.93741704597965
