28
Coordinates from ORCA-job 3628optt
  Br  0.61479313220154      0.21576757562317      0.84605200848076
  C   2.94759456792346     -0.06591960244212     -0.15856670105497
  C   3.58194572927692     -1.24931172075967      0.06565831361631
  C   2.85501628033662     -2.53049663649849      0.33344370157218
  C   3.71572004966612     -3.76760237038988      0.00800470395165
  C   3.01573959257751     -5.04679128664638      0.46604948460439
  C   2.10139899168663     -5.34414999277109     -0.71639058229670
  O   2.82762236064331     -4.89525488709579     -1.86248099958226
  C   3.78356564749967     -3.99436354531102     -1.49872224561824
  O   4.53520386854023     -3.53047593751402     -2.29749135340772
  C   5.10417270431139     -3.60460942827360      0.62404736474693
  N   5.70214463910915     -2.33141590020159      0.32222217673461
  C   5.00095907618704     -1.17998970418277      0.10555197991356
  N   5.71396915594884     -0.08476865673229     -0.05936261581775
  C   5.06518395955019      1.09914166277779     -0.27449583644072
  N   5.61475904803104      2.24889611602025     -0.44786481895544
  N   3.65964513946987      1.05184606486335     -0.30786161403235
  H   1.91492648991877     -2.53788999007277     -0.22260243234566
  H   2.57846231669955     -2.60268833233345      1.39247574362082
  H   2.46977703089952     -4.91187278727274      1.39871480463911
  H   3.74006676415182     -5.85631234439445      0.59377766820999
  H   1.16255878963602     -4.79072335285761     -0.65256341332021
  H   1.88545507881954     -6.40187932913394     -0.85417794965131
  H   5.76055770166589     -4.39670191377824      0.25474851363778
  H   4.99278264541796     -3.74931139281662      1.70842895447822
  H   6.70221345096412     -2.24423781107668      0.26384272168127
  H   6.62114168839251      2.12200063003724     -0.39914008231745
  H   3.19262410047465      1.93711487323349     -0.44029749504680
