33
Coordinates from ORCA-job 3630optt
  Br  1.04050444666591      0.21578531449051     -0.82708438044738
  C   2.92173215687893     -0.00854749744307     -0.50752577833531
  C   3.80633678963449      1.02656504689957     -0.77590854831198
  C   3.41002338583850      2.44680236208803     -1.00395032659157
  C   3.29609534518439      3.30624153680726      0.27884660456454
  C   3.14840906333468      4.79459700312340     -0.08342304669879
  C   4.52527929810056      5.47351362253100     -0.13450000334240
  O   5.54691770522046      4.55658014468171     -0.45716060794485
  C   5.79763898722409      3.65453206584109      0.61966684588889
  C   4.47857275052102      3.14265063300888      1.23525306464582
  C   6.74094529011582      2.57408172724178      0.11536996328509
  C   6.19946108391137      1.63343962329265     -0.96955500751991
  N   5.17337100625592      0.71383902933966     -0.53023208184498
  C   5.56957152945605     -0.50286686524503      0.11539138194014
  N   6.80602060653492     -0.72266647495552      0.45665326907346
  N   4.63137102736087     -1.44741699257699      0.35494631101378
  C   3.35232749719906     -1.21620549216616     -0.00027427490255
  H   2.43074797786032      2.45673545603151     -1.48454445869191
  H   4.08677261817528      2.95604576784524     -1.69104862400823
  H   2.39806709065477      2.96692091235765      0.80095217799923
  H   2.52423016924704      5.31436655325028      0.64856234332830
  H   2.64857537689833      4.88048610365009     -1.05173839258773
  H   4.75600897188952      5.93914665343164      0.83493080600733
  H   4.55843874527002      6.25766335436454     -0.89139519671182
  H   6.34003422645021      4.22000401974187      1.39315631646818
  H   4.25992810295341      3.71596733019251      2.14154591648375
  H   4.58386754452322      2.09965885333786      1.53527035111162
  H   7.04962843192780      1.98222243874729      0.98051850839682
  H   7.63274112919343      3.07347147569705     -0.27693173012967
  H   7.03372323134154      1.04905590296009     -1.36565459468563
  H   5.82705831427990      2.22385429847136     -1.80358549816345
  H   7.40393147970933      0.06421479142819      0.24917691836864
  H   2.64466862018876     -2.02573869846599      0.14227177234257
