32
Coordinates from ORCA-job 3634optt
  Br  1.91757363205101     -0.65049372115662     -1.18584191232869
  C   3.44870410085916     -0.06051666001907     -0.18234591115383
  C   3.54432260825304      1.20885167791214      0.29087316163699
  C   2.43307809328015      2.24051944387381      0.33006432369385
  C   2.69630681355978      3.61515641588043     -0.33691291228537
  C   2.56059237080091      3.60385194511259     -1.88265103377835
  C   3.51149911905485      4.53684898305739     -2.66661766189039
  O   4.82732878927415      4.06888313488418     -2.93984132517250
  C   5.74267789051282      3.92451221426815     -1.85548528608729
  C   5.06564907421478      3.16905842857440     -0.73215898409086
  C   4.09638619233583      4.07278026461370      0.04115293865791
  C   5.80377403495265      2.24158049500504      0.20789000959369
  N   4.75746376546223      1.54819074735148      0.99484839391385
  N   5.39184095309029      0.51315738587640      1.73912999306373
  C   5.22346034617629     -0.68656592882728      1.27333966430126
  C   4.39922798754925     -1.09661635510962      0.15843113780727
  O   4.43645697710593     -2.25691910262584     -0.33312113713477
  H   2.24710183118098      2.44260546598568      1.39199314294270
  H   1.52355978891953      1.80420609766197     -0.08308379471674
  H   1.95517910627445      4.31153573124264      0.06757989163270
  H   1.54373352138411      3.90670779355347     -2.14885088991960
  H   2.67608401637432      2.58786436133337     -2.27069825167615
  H   3.55577937860170      5.52376926263246     -2.18680489403662
  H   3.08530554068945      4.68399246355182     -3.66023242419223
  H   6.10003815195451      4.91221961148382     -1.53356815241867
  H   6.58484483259870      3.37067998328716     -2.27375966354187
  H   4.47214518855710      2.45322141043224     -1.29831647542927
  H   4.25473068169341      5.12348164266568     -0.21027253427199
  H   4.25108759743185      3.96828883274890      1.11586233145560
  H   6.46255128320459      2.74703520103691      0.91941482962214
  H   6.39742140013885      1.51359144436206     -0.36299006711297
  H   5.74309493246321     -1.48147867064950      1.80397349291650
