28
Coordinates from ORCA-job 3636optt
  Br  0.79562969027148      1.43051490897268      0.85216994117820
  C   2.93479539098501      0.55718202172051     -0.38180639151229
  C   2.99408286225516     -0.82176194129768     -0.37830696435791
  C   1.89059781789230     -1.84424651300407     -0.40013621329038
  C   2.60146875967117     -3.13682782072081      0.05717218604495
  C   2.03047055413431     -4.41712918679725     -0.53410223514138
  C   2.06217672494189     -4.57545696957471     -2.02868304949992
  O   2.53092236822585     -3.80303854716593     -2.81822872313346
  C   2.63129633557052     -3.25615726200279      1.59278545345011
  C   4.03207499671244     -3.72623102397640      1.95059914090664
  O   4.41107412253022     -4.13793740480461      3.02624484482510
  N   4.79700972159945     -3.58228715049628      0.83464591221320
  C   4.11089597255321     -2.93339392117477     -0.26996075943582
  C   4.24325973160920     -1.42890511137900     -0.31283164973134
  N   5.40929870165384     -0.79821491292428     -0.26547756896478
  C   5.33098181146283      0.53593976060874     -0.26990825014038
  C   4.13447628971422      1.24850983678717     -0.31764394800899
  H   1.48445608665622     -1.94585147029111     -1.40878159580491
  H   1.07277421759163     -1.55343433303088      0.26238415608681
  H   0.98227970077188     -4.54020574774133     -0.23227019635633
  H   2.54673460288902     -5.29723669071965     -0.12500143695374
  H   1.60043719702573     -5.51869551528438     -2.39072119931134
  H   1.87648072287362     -3.92565273272415      2.00438796555931
  H   2.49869166974997     -2.27415062378384      2.05593239074987
  H   5.80156479526164     -3.55707419056803      0.91775093511913
  H   4.40981708815608     -3.38347147606258     -1.21746242805223
  H   6.27757623223157      1.06813857732336     -0.22523391100730
  H   4.15667583500941      2.33207544011216     -0.29051640543083
