30
Coordinates from ORCA-job 3649optt
  Br  2.51323025835217      1.78495668542931      3.23817442395994
  C   3.23798848067130      0.91985937722231      1.64307694833433
  C   3.73496320734781      1.74641690698009      0.61924919661361
  C   2.92011543793762      2.96351764461271      0.24689419316266
  C   1.58663861583668      2.45301932494077     -0.33379893317374
  C   1.32335928823720      2.25367908808496     -1.78916245479724
  N   1.61000918730480      1.13784481987755     -0.92404292084399
  C   0.58157491180762      0.17818017442052     -0.57328551979018
  C   0.88683719965596     -1.22140666224579     -1.14486868782648
  C   1.38269026997100     -2.28238193453236     -0.13767825055950
  N   2.82000432258819     -2.38297575157856      0.13431069102690
  C   3.48764195666998     -1.20405768436497      0.54936621486909
  S   4.80723330277972     -0.58008740773021     -0.42129982473451
  C   4.45266571615762      1.20543648400118     -0.47872415157741
  N   4.82984603400078      1.86990926323748     -1.52792976704315
  C   3.03485134519276     -0.45713381360526      1.61310175597650
  H   3.45885179572125      3.55110265122945     -0.49459166181485
  H   2.70895852335468      3.59659040523164      1.10886947422392
  H   0.70181165261480      2.67398471240875      0.26324893877484
  H   2.10587080866993      2.49777060481209     -2.49996044212646
  H   0.29872193684198      2.37290866772851     -2.14149998126695
  H   -0.40563306719442      0.52301161461432     -0.92110781250191
  H   0.54092448313882      0.12380909367119      0.51826742954692
  H   -0.02611093905711     -1.62166525259116     -1.59664999532663
  H   1.62142818689859     -1.10925627822415     -1.94685817871661
  H   1.07659109051270     -3.27122285408179     -0.49104905049487
  H   0.86883365290552     -2.12713381183171      0.81478608746674
  H   3.30001155775952     -2.80034154987955     -0.65088247820076
  H   5.23441041754333      1.24752415714735     -2.22071428832004
  H   2.38568036577915     -0.91985867498466      2.35075904515985
