26
Coordinates from ORCA-job 3653optt
  Br  1.28858892723023      0.56270685048519      0.51743927953335
  C   3.15223881599640      0.24525259915491      0.29210620358093
  C   3.63494564333245     -1.05261021822475      0.16729674023766
  C   2.73852071559874     -2.25709260003618      0.13353149398979
  C   3.47288408922898     -3.54341040202870     -0.22832448668804
  C   4.84879327957582     -3.52773837587161      0.44656590699106
  N   5.66120160837961     -2.42773034706039     -0.06066543226871
  C   5.02353870192231     -1.17468653622844      0.04093782959312
  C   5.79827352739135     -0.01543356727165      0.00214561177387
  N   5.30809006942382      1.21412701758419      0.08909700273246
  C   3.99529083222983      1.34272570121113      0.24468214431274
  O   2.71054784056584     -4.64248074661886      0.30627172675559
  C   2.58926553761671     -5.64984477177829     -0.58993671348928
  O   1.95507365799570     -6.63445099140181     -0.32335523247093
  C   3.36000255897259     -5.32676012062839     -1.84074642470074
  C   3.60002963999118     -3.83836072406411     -1.72384842693643
  O   4.42704650884238     -3.19158815579381     -2.46112868085136
  H   1.93444977271862     -2.09010004991116     -0.58707708048981
  H   2.27176998522909     -2.38181018030992      1.11662248557975
  H   5.36778842128848     -4.46539894735518      0.23882124319154
  H   4.74631996068476     -3.43135316876088      1.53365858223700
  H   5.81297080763620     -2.61242773562046     -1.05812645727483
  H   6.87305103775762     -0.11814657886672     -0.10315676602603
  H   3.59491686979378      2.34537873656413      0.33706169106349
  H   2.80813120197514     -5.64750845647604     -2.72481962253153
  H   4.30126998862222     -5.91425823069208     -1.82405261784464
