27
Coordinates from ORCA-job 3656optt
  Br  2.03500933896696     -0.68289597256023     -3.03893974379978
  C   3.31617611658454     -0.02671178049952     -1.75788850509652
  C   3.16257783320130      1.16174220008395     -1.12255909876684
  C   2.03523292259175      2.13941594519009     -1.36041953683552
  C   1.09832330650523      2.25510993249052     -0.14278868437979
  C   0.70484379170218      0.91734830529814      0.54275944746117
  N   1.47067477863338      1.33000838672311      1.72721184250169
  C   1.75755314707438      2.66678967050269      1.19984270680777
  C   2.11138348891684      0.46994252039258      2.59585298009743
  N   3.32003870814651      0.35828235480614      2.96980836549782
  C   4.42808078935789      0.99530106666336      2.24081189301659
  C   4.39911169457527      0.57599654485932      0.78267321944536
  N   3.92617987804914      1.51078887156899     -0.05303699134892
  C   4.62503977471710     -0.79253395162159      0.46590852395580
  N   4.90662292545626     -1.80146247109859      1.22921592488803
  S   4.58394581214394     -1.14219473713651     -1.30800531381888
  H   1.45051268878948      1.86671834872801     -2.23847636419386
  H   2.47405089032295      3.12559214222496     -1.54183182851873
  H   0.23984207918932      2.87204462198235     -0.41100363193832
  H   1.10487953463067      0.02763679582905      0.05020018584862
  H   -0.36625047238329      0.78762111770077      0.72865104113621
  H   2.80445109584797      2.94124294039562      1.12423765073374
  H   1.19177407561287      3.42676037960687      1.75022035849200
  H   1.40827504532642     -0.25325768908635      3.02389303644238
  H   5.34474021177373      0.66735070251164      2.73761959389865
  H   4.39752839825677      2.08711729824839      2.27747059874014
  H   4.89640214601041     -1.49675354380376      2.20357232973377
