22
Coordinates from ORCA-job 3658optt
  Br  1.10821791302321     -0.58558179236986      0.03794046294411
  C   3.02462179447470     -0.41064108170852      0.06739128685131
  C   3.74535768684222     -1.55472306050155     -0.04458464264937
  C   3.35998925613674     -3.01972442887184     -0.13654194487539
  C   4.72046267316128     -3.64701910885726     -0.02808672028447
  C   5.67201755627890     -2.67889435923943      0.04238669359038
  N   6.95397201013135     -3.20785680845863      0.10882257211188
  C   6.88326302054058     -4.59688494092569      0.13480026957330
  C   5.43746640575388     -4.89202470872850      0.00493831612551
  N   5.02823532315414     -6.12331551624558     -0.03772347165280
  N   4.69165141959035     -7.20331618436808     -0.07585055538386
  O   7.82281817139718     -5.35724256929753      0.25443929416954
  N   5.16072873527753     -1.42139440266504      0.00184627165247
  C   5.79059247670491     -0.15471245481879      0.02386917616974
  N   7.08257009463874      0.00621113431173     -0.06572791890625
  C   4.86721637965880      0.91370604963165      0.15740217750400
  N   3.52489387528495      0.80857766228453      0.18691353936901
  H   2.83975501335813     -3.24765327716116     -1.07685953591713
  H   2.67228616997863     -3.29876044200039      0.67026249755979
  H   7.78585529340660     -2.72242630218790      0.39820172608023
  H   7.54865160025156     -0.86113490777686     -0.30207629119288
  H   5.29437713095556      1.90581149995472      0.21423679716086
