24
Coordinates from ORCA-job 3659optt
  Br  3.97892044143406      0.22405758803220     -3.29697100708798
  C   4.16976091332029      0.50763153699359     -1.43249123194611
  C   3.21726798782955      1.10521652786238     -0.67258425749493
  C   1.89655415368577      1.68016818879652     -1.08749105871707
  C   1.31510640015055      2.27146528225362      0.22260750075148
  C   2.38348446531671      2.03362473876637      1.36266326078622
  N   1.69386261248258      1.28456588488710      2.47369481843525
  C   0.38269240935696      1.06339157076223      2.03781235271253
  C   0.12782824609179      1.55750884443362      0.79157526622376
  S   -1.46771622742064      1.16636517441915      0.36654015829423
  N   -1.81065310848662      0.38943238518541      1.78094616152657
  C   -0.75135444644123      0.39456681083945      2.56109623225349
  C   3.47695785812027      1.28155410962000      0.69007578347713
  C   4.70360911901546      0.86457274740116      1.23998290810288
  C   5.67939330635060      0.23467443908814      0.44698229733466
  O   6.77899857220915     -0.18822609937747      0.74829593910629
  O   5.34779333853804      0.04779950764313     -0.94447391902595
  H   1.23290461148922      0.92224377464547     -1.51230480678574
  H   2.01963865725800      2.45528327010326     -1.84848169126312
  H   1.09480525461203      3.33364933168751      0.09095944841409
  H   2.74125770946982      2.97973410302600      1.79063068961616
  H   1.75116221342019      1.75978315417649      3.36439182009735
  H   -0.80974399086028     -0.09658677956873      3.52445547925688
  H   4.93946950305767      0.97852390832335      2.28808785593193
