23
Coordinates from ORCA-job 3668optt
  Br  1.10866983505082     -0.17502651183945     -0.00084869283717
  C   2.99916518828462     -0.00901335532754      0.03425021429861
  C   3.59883635080500      1.25488178908293      0.06946764912351
  C   2.87561278815535      2.45602376075003      0.09364991130931
  C   3.51799182259554      3.68408342884617      0.13249856400329
  C   3.03033878455484      5.01907791334965      0.17030313722732
  N   4.02019233306488      5.89984337954946      0.20804074865222
  C   5.18520174476931      5.16768498140981      0.19527973810273
  C   4.94143249761131      3.81175925144973      0.14898499599785
  C   5.79707898340111      2.64050273688723      0.11799830382757
  N   7.07741733728866      2.63517475664169      0.11326827738007
  C   5.07414217623613      1.31375187174809      0.08650486439241
  C   5.80158438562902      0.18565208360043      0.07376858455144
  C   5.21571649384923     -1.14798535310335      0.04294885104281
  N   5.90015600575750     -2.22762678941286      0.03157080378957
  C   3.70312568666703     -1.26200272916344      0.02292135599927
  O   3.16181461082538     -2.36008779116595     -0.00100355681897
  H   1.79426163400965      2.41225690560433      0.08430281468262
  H   1.99417308608549      5.33168812185352      0.17155994590174
  H   6.13914547899262      5.67751884905763      0.22190003513765
  H   7.42072001910830      3.59427161709057      0.13547376989955
  H   6.88283197337560      0.26684594466221      0.08673817933895
  H   6.89439078388257     -1.99227486157088      0.04742150499765
