23
Coordinates from ORCA-job 3672optt
  Br  3.52314105871023      0.18746470786972     -3.80791686461413
  C   3.98451370471088     -0.08989398853641     -2.00589339442484
  C   3.34592571656719      0.51957854409782     -0.92645600801065
  C   2.25786006259677      1.38222828597699     -1.14335702893837
  C   1.46061857778003      2.05740748376347     -0.22392195711914
  C   0.33364903652496      2.88389913061944     -0.51490489064857
  N   -0.22579476342868      3.38091688566765      0.57719014331961
  C   0.51281426490834      2.90304149814563      1.63138400762164
  C   1.54109716969168      2.09685969883430      1.19201363172990
  N   2.49054905466092      1.46919924564126      1.99591031305396
  C   3.53841359702714      0.65528088085122      1.76663948244051
  O   4.21690361715727      0.29263742770602      2.72706777225897
  C   3.91478674691477      0.15026316141189      0.37788434625485
  C   4.92740145798481     -0.74089239028143      0.42837678145883
  C   5.50760501047714     -1.37237377658794     -0.73852495413681
  N   6.43729556297942     -2.23789180431660     -0.77441700173419
  O   5.00414193568791     -0.98857890057942     -1.94105509612479
  H   1.98097951965832      1.53131920092016     -2.17923608491187
  H   -0.05119130397989      3.09523605604401     -1.50492388878965
  H   0.27125979409565      3.16251028253355      2.65354068127189
  H   2.41336141663866      1.66565436269997      2.98487644204262
  H   5.34538234980196     -1.00136743241701      1.38894832596440
  H   6.73428641283448     -2.43949856006429      0.17577524203582
