25
Coordinates from ORCA-job 3676optt
  Br  1.79198447911457      0.33029679818385      1.26588984228998
  C   3.45506982518927      0.19358602530359      0.33075423723365
  C   3.95861140872538      1.27789785929923     -0.33396076827913
  C   3.12874958661903      2.45911271430194     -0.78658173968850
  C   3.21709606320442      3.76068370311541      0.08292436328760
  C   4.07976860043547      4.79875918378917     -0.65540841760126
  N   5.42729928365346      4.20545315921044     -0.58570306392856
  C   5.40184351879029      3.43028221553655      0.41287366731450
  C   4.15213013312736      3.48292204373090      1.25998391937396
  O   6.36616215459247      2.51261672670450      0.64804539614354
  C   6.46203946358453      1.43581118831913     -0.23602821145198
  O   7.53288168659920      0.93412668709771     -0.39503271031835
  N   5.28384544991674      1.04687879191886     -0.83652922884230
  N   5.46440181530136     -0.17561699664511     -1.56636809992687
  C   4.89563414549473     -1.16824928955629     -0.97732580359660
  C   4.03148403290868     -1.11685559267996      0.20734350109124
  O   3.71875855901218     -2.14176222694726      0.85532124180930
  H   2.08872294113685      2.13910171503521     -0.82773849296120
  H   3.43435421831690      2.69534592958173     -1.80852518339011
  H   2.22876179164322      4.12233632599030      0.36780916157667
  H   4.06050332570584      5.78201900296392     -0.17008824583396
  H   3.79554357359297      4.92957113389820     -1.70070289363740
  H   4.19557288029219      4.33239690851258      1.94897111617798
  H   3.95450486058057      2.56568163485711      1.80679177429532
  H   5.02027620246219     -2.14039564152176     -1.44671536113752
