27
Coordinates from ORCA-job 3683optt
  Br  1.60903690048016     -0.82142480534131      1.87825312762220
  C   2.67278272295199      0.01954709438124      0.52001834385437
  C   3.65176655445017      0.97372312772513      0.93915507207760
  C   3.22376451759237      2.18104612524975      1.78713987471517
  C   1.80582142159254      2.52507542204062      1.40242583291070
  C   0.67907982192733      2.38301695085167      2.16189125787799
  N   -0.35467688032641      2.19981667633837      1.26919166753066
  C   0.18618144597837      2.22529370660890      0.01420608472505
  C   -0.53792756444589      1.72846884179203     -1.19920651010781
  C   0.30910463391080      0.76415876773602     -2.05653606810909
  C   0.98298529193695     -0.43612411814229     -1.34449027586700
  C   2.34098904686197     -0.03137455671523     -0.80723283297439
  N   3.15636296804857      0.46966229316523     -1.75760168175343
  C   4.31126095057337      1.05233318487055     -1.40851401471700
  O   5.19906011817552      1.40323242311654     -2.15744172188923
  O   4.54324440638702      1.33064705375632     -0.04882257343117
  N   1.45664583271152      2.49903725605659      0.06888742007551
  H   3.93677138236147      2.97746671869778      1.57166277021304
  H   3.25504856819379      1.96988668212834      2.85861827068320
  H   0.54258440712456      2.27670504699694      3.22377848417032
  H   -1.28899476223900      1.91237702014424      1.49872856931086
  H   -1.45021628884814      1.22484812515202     -0.86283403855098
  H   -0.85442614393471      2.56124845027313     -1.83437914264746
  H   1.10502022094959      1.32566534188803     -2.54610055438948
  H   -0.34930997351514      0.38280465947553     -2.84160506828624
  H   1.12818315827845     -1.21965115550842     -2.09292274100080
  H   0.34285724282274     -0.83648633273775     -0.55726955204259
