17
Coordinates from ORCA-job 369optt
  C   2.91198066631873     -0.11998140758068      0.64127676375553
  C   4.24798938002556      0.22192235162841      0.01110481087372
  O   4.42917366516436      1.60003024469716      0.13120311016460
  C   5.53547214526217      2.17865960337231     -0.49353100700559
  C   6.51540842459066      1.38195158196190     -1.08111469427804
  C   5.50816801505545      3.58047876167508     -0.45037634366389
  C   4.51552605718883      4.39512437665612      0.09424183673003
  H   2.72140097665893     -1.19422560488634      0.58648871094949
  H   2.10813833728897      0.40794821090720      0.12648977182270
  H   2.90061521885957      0.18601375828651      1.68850559707235
  H   4.26590514977358     -0.07603403801950     -1.04450970413205
  H   5.05708497836007     -0.32258411067055      0.51640091397915
  H   6.51967842947391      0.30466900550954     -1.03943953383551
  H   7.35695218803037      1.86774713164510     -1.55396252061595
  H   6.37487900540879      4.05508760366878     -0.90205139208228
  H   3.63159359020155      3.97840609208118      0.55739899508270
  H   4.61503377233844      5.47278643906774      0.07187468518303
