23
Coordinates from ORCA-job 3700optt
  Br  0.87542021532501     -0.06556616125100     -0.60314795542244
  C   2.68763245213499      0.12546992257920     -0.01383804770734
  C   3.48448648299424      1.16869191850469     -0.45407412881575
  C   2.93954412994602      2.37748790763302     -1.17798586292561
  C   3.02539884196562      3.57854423590362     -0.30931538977568
  C   2.09325653803686      4.39985257321037      0.25041804880166
  N   2.69248783490656      5.35920701176890      1.03651551389796
  C   3.96858494595663      5.12596366502385      0.95086150257990
  N   4.24202517385604      4.05122897801055      0.14493917983074
  C   5.54067378167639      3.59219651094108     -0.19278467174757
  N   6.56456986574279      4.35673020322382     -0.21824700327630
  N   5.65629194469910      2.27369325762881     -0.51153964396129
  C   4.85398336649907      1.14093907756199     -0.19609424899588
  N   5.62152642355197      0.10690938963826      0.20569793446800
  C   5.14535439995102     -1.05058238162993      0.62333683825361
  O   5.75305625885298     -2.05845759261323      0.92241643545256
  S   3.29482811442282     -1.22426482031267      0.88374985277877
  H   1.90092909347407      2.22527784089098     -1.45765062782767
  H   3.51490835076966      2.54077452021826     -2.09458854943568
  H   1.02330359951024      4.34184748028587      0.13580442095256
  H   4.75188016780467      5.66065448074869      1.46319843436467
  H   6.30144491607093      5.32651020629769     -0.09051959888733
  H   6.62641310185224      2.01189177573716     -0.63315243260189
