27
Coordinates from ORCA-job 3702optt
  Br  2.17263213317276     -1.97835998947144     -2.27567637268527
  C   3.31116779338827     -0.07969189807884     -1.02902891196225
  C   3.20601189366750      1.25042497390277     -1.31660602649519
  C   2.35014123353523      1.77139035044270     -2.46836242692308
  C   1.06481729663288      2.07637337607825     -1.72875407753563
  C   0.13164223101909      1.20277204874739     -1.23825194105243
  N   -0.25159087292791      1.54804026141428      0.04270440457518
  C   0.46320722893817      2.61053091290918      0.32795319205136
  N   1.15629356157140      3.05487606271049     -0.74167829881745
  N   0.60435061879606      3.19435546195953      1.58205611005394
  C   1.95717859046147      3.59423441959229      1.98155488887835
  C   3.04208349035388      2.50965819427789      2.21515227985025
  C   3.37199567672008      1.58651366252972      1.06888547616217
  N   3.36317613126550      0.30833685025348      1.30532559046189
  N   3.51082647702503     -0.48132880607990      0.22868820918500
  C   3.59250416945674      2.15544259126213     -0.26705518763069
  O   3.89022278893430      3.35797437127504     -0.41288529820259
  H   2.19983214305147      0.98429542581741     -3.20430186272506
  H   2.78289541049636      2.65476924336895     -2.93952665623740
  H   -0.18451543055173      0.27287468571983     -1.68283200455489
  H   1.92345078105764      3.71122597807281     -0.70770403383895
  H   0.13522378515326      2.61344998887992      2.26400207071367
  H   1.85427789485362      4.14473611661966      2.91817175450481
  H   2.33459829438870      4.30564013351488      1.24832170770410
  H   2.76119095138236      1.88082407794773      3.06232554177468
  H   3.94157647148376      3.06753269855580      2.49582415300858
  H   3.50780925667402     -1.46989119222203      0.42869771973688
