27
Coordinates from ORCA-job 3714optt
  Br  1.19904864544940      0.07516392138003      0.03561478032263
  C   3.08741104403336     -0.16627089736838      0.26622858686812
  C   3.69395130251509     -1.36316640290905     -0.18632232248020
  C   3.17357989457651     -2.66065564356074     -0.71908470342483
  C   4.27941895410540     -3.60297201064965     -0.24377536585685
  C   4.12916364192242     -4.01472272404398      1.22493942918776
  N   4.69261306424717     -5.35652410796543      1.17832939192628
  C   4.56529898159287     -5.86825336909882     -0.10431342078331
  N   4.67275172152471     -7.05982619067779     -0.52384563960747
  O   4.30641916709694     -4.85422582818706     -0.94683291053992
  C   5.59072099410071     -2.77793394332168     -0.41173017743090
  C   6.04549148042271     -2.75950353070004     -1.80086495402871
  C   6.41918063194186     -2.74231108864654     -2.94037217955673
  C   5.09312225068066     -1.42292175342017      0.05548124667529
  C   5.77087479431197     -0.41247904106346      0.66761970802520
  N   5.17276616277079      0.75973284265512      1.07209198438952
  C   3.82942957123561      0.82395471214318      0.85215691522881
  H   3.10699730175146     -2.71073326424237     -1.81606396555154
  H   2.20041499781714     -2.96101240499690     -0.32002780087609
  H   3.07736228018974     -4.01096710919352      1.52465753346917
  H   4.69694963326217     -3.35371636165626      1.88085515646471
  H   4.51227793405492     -5.99621840945752      1.93362380669802
  H   4.86435362794841     -7.68602236622389      0.25182933186642
  H   6.38530759413744     -3.18329521230526      0.22137607806232
  H   6.74224048880276     -2.71718833845309     -3.95204118537789
  H   6.83971839574858     -0.49396437258515      0.84450928113932
  H   3.33313544375912      1.73603289454848      1.16896139519089
