20
Coordinates from ORCA-job 3715optt
  Br  1.20604796179709      0.41702040275766      0.23556646329768
  C   3.04438744432188      0.00280596279906      0.14518528100422
  C   3.47726130413369     -1.29189366245385      0.00044167386318
  C   2.79802932082836     -2.52485001631923     -0.08475242277796
  C   3.69055879237935     -3.60485378975157     -0.22663365691671
  C   3.38582069411334     -4.97130658871841     -0.17243247164180
  N   4.19821846202352     -5.99105473060249     -0.06796438700053
  C   5.55699603914273     -5.80108445800139     -0.10505668528686
  N   6.41857059754705     -6.46614069324946      0.54280700397918
  O   6.07839303252873     -4.88851930860280     -1.04542518212020
  N   6.14863869329616     -3.54807936895994     -0.65567887143053
  C   5.03125803857824     -3.04389470154670     -0.30672481132760
  C   4.91081755932484     -1.56452956584819     -0.07633043564901
  N   5.91723292914199     -0.77274678842380      0.00752108816590
  C   5.76286490444534      0.58754844472379      0.18902982887358
  O   6.68352469526040      1.35352602102249      0.29130341651660
  S   4.12336554040187      1.34696598885508      0.28418384992448
  H   1.72371006086297     -2.62373100743425     -0.01679018326316
  H   2.32491465557510     -5.21989418498943     -0.14567135619943
  H   5.91338927429728     -7.12528795525652      1.13242185798896
