24
Coordinates from ORCA-job 3719optt
  Br  0.84274899575477     -0.76518913328968      1.96022334894813
  C   2.45520761705180     -0.44579685840132      0.98127892505303
  C   3.33853933045083     -1.51106685834115      0.64263987340476
  C   2.76278569477801     -2.79945228164380      0.06097766633757
  C   1.60547981467524     -2.40061242061344     -0.82436396365731
  C   0.28997230761302     -2.70908611370646     -0.91478071711235
  N   -0.43013215308449     -1.62095281525115     -1.40070076565737
  C   0.47409573396740     -0.70856960132300     -1.54918603682867
  O   1.71972763184283     -1.14148445829251     -1.35452701028994
  N   0.26015263678547      0.64192143951068     -1.75522663086361
  C   0.71825805867366      1.57433207133640     -1.02751533832090
  O   1.52623323233920      1.66877704004860      0.04809248471524
  C   2.59946473427853      0.79985135767586      0.34004484278947
  C   3.82628532648588      1.14500583765315     -0.10794132258546
  N   4.87607690459950      0.26203298660567      0.17538398340715
  C   4.63721540488288     -1.14052118791269      0.18295131968628
  N   5.54404032672770     -1.98741518206674     -0.21535355271461
  H   2.36365823788460     -3.49177988759548      0.80789521061254
  H   3.56982154922166     -3.30506387950274     -0.46966595583035
  H   -0.20596188264577     -3.60275250858732     -0.57472159986052
  H   0.35968953204658      2.57761730718111     -1.24990859650613
  H   4.01815702969577      2.01104766451091     -0.72541145700689
  H   5.77677709177373      0.51587363353591     -0.19567233786157
  H   6.34770684420117     -1.49671615153079     -0.60051236985850
