30
Coordinates from ORCA-job 3722optt
  Br  0.67623958328013      0.16276884006380     -0.86023926776429
  C   3.08406403523590     -0.12541813384772      0.08923987408879
  C   3.68782820770999     -1.34443553894270      0.18311517009664
  C   2.83143440792691     -2.56784005338484      0.38823851308702
  C   3.06316960809248     -3.63215850465410     -0.66791291844741
  C   2.04687720761166     -4.77552991049327     -0.73025969590872
  N   2.82175160615541     -5.82275455204603     -1.38621467899604
  C   4.16876210995716     -5.65603440339939     -1.28979614766680
  O   5.01487800528431     -6.40875221425717     -1.72676079684138
  C   4.37801071377072     -4.38025108696060     -0.48818301448122
  C   5.61862473870506     -3.58405159824450     -0.81344747762978
  N   5.86000691557136     -2.53747336522106      0.18421594577140
  C   5.11915472074563     -1.33598399670796      0.10956064344554
  C   5.80849187367607     -0.15175513704226      0.00915621360969
  C   5.15360700577112      1.12485696439977     -0.04843887793818
  N   5.66592182243551      2.30926414288158     -0.13840991062457
  N   3.76441204110456      1.01838379833459     -0.03115695535003
  H   1.79486827129023     -2.22776902014462      0.35598404221432
  H   3.00856359819761     -3.01433048530842      1.37589424699507
  H   3.07180164928215     -3.14901608038396     -1.65121571900138
  H   1.16202213687689     -4.50821709827673     -1.30639434639576
  H   1.73461861040374     -5.07978039119193      0.27546993859229
  H   2.43557834871651     -6.67123420510067     -1.76472513170140
  H   4.45305449454039     -4.70158806295421      0.56032428574255
  H   5.53083085283602     -3.16377958051226     -1.82418249409831
  H   6.47953838214223     -4.25397260047801     -0.80708734017822
  H   6.84537660271433     -2.31621180405070      0.21600369752242
  H   6.88962398237888     -0.15925958121926     -0.06620568883213
  H   6.67884366734215      2.23961985982333     -0.14793340448957
  H   3.24804480024470      1.88170379931940     -0.14063870482053
