27
Coordinates from ORCA-job 3724optt
  Br  1.03943423542777      0.08331316834465      0.12238895300451
  C   2.96973154109140      0.13875107464951      0.26567819901354
  C   3.58205498915812      1.35074002754136      0.21480328008504
  C   3.03297804388718      2.73301674103406     -0.03236853931064
  C   4.25298957364513      3.64935670788980      0.19213459936089
  C   5.46041365295706      2.74655710477961     -0.14120437015359
  N   6.72488161473526      3.22666356263890      0.41987183015137
  C   6.90808168811892      4.11198148594861      1.41720978914532
  O   8.00689356083187      4.36377471180415      1.88724462014654
  C   5.67586084133892      4.85842939707215      1.89203983151837
  C   4.36634304618773      4.10221037160625      1.65532718591308
  C   3.24141998516128      4.96047401136768      2.03278856332775
  N   2.38914720314615      5.67146250597628      2.32349843195232
  C   5.00069920561962      1.40399092402592      0.32268848121629
  C   5.68142984886869      0.14950184047233      0.34761299290351
  C   4.93089155191913     -0.99584326611342      0.40965483651981
  N   3.56771116786031     -1.06062041354567      0.40597044114037
  H   2.19547707644481      2.99253330125454      0.61967564565941
  H   2.67104097478030      2.82443578251131     -1.06032176628857
  H   4.22845860910134      4.54010458839045     -0.44075572855672
  H   5.60436495852318      2.77752599907008     -1.23893747595162
  H   7.55989319216342      2.72390547494177      0.15549785826289
  H   5.65087718625635      5.80821276465967      1.35007635618333
  H   5.82490804200342      5.09150912865459      2.94460149457966
  H   4.33395301292984      3.20635197272056      2.28347732726883
  H   6.76342739360614      0.07930115972553      0.37286441741902
  H   5.43063780423654     -1.95764012742077      0.48248274548929
