22
Coordinates from ORCA-job 3732optt
  Br  2.62374481613526      2.55513841555748     -3.20385086712814
  C   1.28610027082153      2.91206812252812     -1.59180332218009
  C   1.64340068327842      2.37609258957364     -0.36280451506926
  C   3.06635570320982      2.31908470124518      0.11005557030171
  C   3.54922825589049      0.90197884168550      0.11138396011817
  C   3.18422824214015     -0.06078253650718      1.01322031206867
  N   3.68928363473401     -1.31692412715112      0.78160535827409
  C   4.40824396363357     -1.31533469963018     -0.29397789277218
  S   4.53879456451714      0.19680316173529     -1.09181181142569
  N   2.49880981378151      0.14860411335975      2.20374153549934
  C   1.52207093441573      0.89859250915719      2.46011970641114
  O   0.68001106149467      1.66714747322145      1.74905014529843
  C   0.57550403586274      1.86548341791090      0.36862668326881
  N   -0.64672060082684      1.69174819756011     -0.05879779323599
  C   -0.92039044462854      2.05105055109984     -1.34393671034203
  N   -1.97285129988008      1.79934086864662     -2.00923949021845
  O   0.01798243600888      2.85112060397486     -2.00816471330321
  H   3.14988998082283      2.70946340590368      1.12997858447879
  H   3.68273780056988      2.94313950679502     -0.53403815211103
  H   4.89396534019044     -2.19642994018122     -0.68832007371610
  H   1.20900218516239      0.97154409485302      3.49930090805830
  H   -2.58439137733404      1.25607072866202     -1.40633742227527
