23
Coordinates from ORCA-job 3736optt
  Br  0.59654598873529     -0.65242001611212      0.22228740803817
  C   2.44737286643718     -0.22177403143064      0.21958524084466
  C   3.33611996371105     -1.29041854674118      0.00585011052200
  C   3.10508054010786     -2.78268961012242      0.12234336529429
  C   4.51368368451357     -3.29150440313790     -0.01716299431864
  C   5.31816041157716     -4.38712255110202     -0.14564565763224
  N   6.59993256827178     -3.92638044775123     -0.12886051871520
  N   6.69536841891329     -2.57394914349520     -0.00559346397185
  C   5.42958956857808     -2.21815590439619      0.07500479933285
  N   4.75236153782509     -1.03773821236747      0.22574965949689
  C   5.12715265963853      0.26691481611703      0.21730177460285
  C   4.25911381936536      1.28631684820695      0.23479097376674
  O   4.98504973641872      2.45745803005590      0.46517609098941
  C   6.29212382062263      2.08007882755531      0.13251121491155
  O   6.41823251326740      0.68325823584116      0.40516035275373
  C   2.79365872174115      1.15173753981725      0.30145265295747
  O   2.03492149196986      2.13716482732628      0.41468852746489
  H   2.41332376977214     -3.15307097019775     -0.63504528643697
  H   2.67857489900939     -3.06678159969332      1.10277848656685
  H   5.11277503597560     -5.43998483324247     -0.24779534996315
  H   7.44109640288418     -4.45751959499048     -0.24844794999119
  H   7.00916246002860      2.63108114917137      0.73618200777142
  H   6.45459912063601      2.22649959068914     -0.94631144428451
