26
Coordinates from ORCA-job 3739optt
  Br  1.19937573191707     -0.15869954710383     -0.14859494634843
  C   3.09705852366305     -0.16656938117857     -0.07581840099192
  C   3.79227147934016     -1.39847598914431     -0.02840587283339
  C   3.22412066127218     -2.80088752186119     -0.14103107589017
  C   4.49879310715041     -3.58423434905904     -0.09965697142931
  C   5.61596614513557     -2.79661371359863      0.00309573790121
  N   6.71736671833686     -3.58268230488563      0.02621026071406
  N   6.33339068259085     -4.82564500699239     -0.05690749005947
  N   4.98634621126646     -4.83187398025416     -0.13314341619874
  C   5.20685610120398     -1.39445603908664      0.04213161631205
  C   5.89397565219672     -0.21791808318452      0.09412675904291
  C   7.34487214784503      0.12572021202325      0.19740273420750
  C   7.37050975210115      1.55393529209183     -0.37656383496586
  C   6.02104529243030      2.14309276362140      0.05846487533969
  N   5.15817076840132      0.98156407370418      0.09977173652160
  C   3.75588394512231      1.08631094941789     -0.00260959958695
  O   3.25309786188018      2.21782028339607     -0.01857869135968
  H   2.66494393776236     -2.95814387607283     -1.07272239696124
  H   2.54082693582651     -3.05482583047504      0.67818551234532
  H   4.51346854548827     -5.71555907821223     -0.20394105468483
  H   7.98465835415371     -0.57559423848641     -0.33776082281081
  H   7.67908722809021      0.14554212286736      1.24428344394796
  H   7.40716234775641      1.50370550812745     -1.46663795518813
  H   8.21730139682435      2.14647779238685     -0.02941329285567
  H   5.62004264137944      2.88684729900036     -0.62950016201767
  H   6.09240783086494      2.61416264295880      1.04661330784997
