21
Coordinates from ORCA-job 3745optt
  Br  1.29629193836019     -0.35766820358702     -0.18662390926565
  C   3.14444605914901     -0.00499856665540     -0.03865288819394
  C   3.66873977666084      1.27802400625346      0.03504665257380
  C   2.90162730257028      2.45372373903707      0.01699295227245
  C   3.56876519475650      3.68219868300635      0.09482601221333
  C   3.22707818897932      5.06289029166399      0.10490282083377
  N   4.27178948326847      5.83285771188977      0.19925980627393
  O   5.37669067669309      4.98956686788249      0.25855338518941
  C   4.95374271422396      3.71531600404935      0.19428509639641
  C   5.77203348783728      2.57982893203390      0.22242815290981
  C   7.18166277952731      2.70700756210985      0.33489654950327
  C   8.36972006228677      2.86175332154792      0.43136037317114
  C   5.13807978609207      1.31226710527418      0.14103481312847
  N   5.89996570046417      0.21404435988302      0.16355288408906
  C   5.36223682590737     -1.01724486672100      0.09218999924284
  O   5.97216887596703     -2.07842964615313      0.10723785718959
  N   3.95269768338249     -1.10175887177372     -0.01137712036553
  H   1.82511905477108      2.39922217261117     -0.06087874113715
  H   2.25141402308262      5.52198529675580      0.04312782297246
  H   9.42143405330438      2.97944136917713      0.51847668688168
  H   3.57229633271574     -2.03202726828521     -0.06163920587917
