21
Coordinates from ORCA-job 3748optt
  Br  0.96280811997162      0.20494315108032     -0.02178793013429
  C   2.86433337275994      0.09563501042534     -0.03664344159084
  C   3.47906352363560     -1.14211314024017     -0.03622119811468
  C   2.65881891630760     -2.41397552341861     -0.03061956841405
  C   3.57058154918934     -3.58953107843956     -0.03484721359159
  C   4.93543736569434     -3.50460362743287     -0.03993901397811
  O   5.63046220361772     -2.35824362052393     -0.04273808033775
  C   4.88039744033249     -1.18395795330216     -0.04212167441494
  C   5.64257441099389      0.01214808487533     -0.04779505657222
  C   5.01884445559958      1.22306650487976     -0.04940318181429
  C   3.59677313184353      1.33697728347148     -0.04480590207992
  C   2.99461908981301      2.60041516135202     -0.05018110236101
  N   2.53762323462019      3.67017572193271     -0.05483454058589
  C   5.54058619702526     -4.78581346167769     -0.04277387002691
  N   4.71866096716718     -5.80527684636353     -0.04048843289563
  S   3.16044157286757     -5.25266506750363     -0.03438209342222
  H   1.99425818376267     -2.42138473697318     -0.90050082024598
  H   2.00352533719330     -2.42026668602149      0.84628086031264
  H   6.72226499039748     -0.06182278939507     -0.05127955506986
  H   5.60401582318021      2.13424748214521     -0.05426204250378
  H   6.61091011402747     -4.95395386887025     -0.04665614215869
