24
Coordinates from ORCA-job 3749optt
  Br  3.83740834575444     -3.73796458098783      1.38784845149801
  C   2.40404582575168     -2.79492221156383      2.15569188443412
  C   1.11340729456676     -3.00606968609719      1.83797253317923
  C   0.66204580770238     -3.87512974524186      0.74172740265526
  C   -0.63734632038213     -4.11517182944277      0.65858000822610
  C   -1.69476142415768     -4.44344167124197     -0.35360802141008
  O   -2.57090899970025     -3.49011522911183      0.28829361561114
  C   -1.69464482318887     -3.41087703511207      1.44872103812359
  C   -1.15241204888815     -2.06401763905341      1.86982717621690
  N   0.11095535715711     -2.35603413772238      2.55874871566307
  C   0.31339715011588     -1.98523021135401      3.89959484384092
  C   -0.78823344691971     -1.97432036807894      4.80107727073732
  O   -1.94644655884806     -2.38580368271100      4.56018348735384
  N   1.55063905906962     -1.80094073827267      4.38846278464550
  S   2.75446312697224     -1.56623701992241      3.38682476009135
  O   4.00202044919136     -1.90345657251828      4.01295131226063
  O   2.68718317239627     -0.28663439966866      2.71984794984798
  H   1.38976589682792     -4.21475056882505      0.01859304826996
  H   -2.10473772688064     -5.45650538862213     -0.28960467454316
  H   -1.48338892291605     -4.19022179273556     -1.39406402738416
  H   -2.11843075542037     -3.93845059230896      2.30665959176879
  H   -1.80427060496283     -1.53096548756229      2.55028252598866
  H   -0.94606592330182     -1.46154759673374      0.97984157357076
  H   -0.51668392993912     -1.58319181511110      5.79154674935422
