19
Coordinates from ORCA-job 3752optt
  Br  1.22328538348869     -1.04273514617542     -0.06231413965842
  C   3.05467052534387     -0.52291771283203     -0.06003660506382
  C   4.03919664810785     -1.50086428932524     -0.05424912111523
  C   3.79318804857225     -2.99833833060494     -0.05016975968880
  C   5.18836404682296     -3.52973414460117     -0.04531416212670
  C   6.06210330431280     -2.50419196981728     -0.04650103779597
  O   7.37951168107527     -2.88804237930592     -0.04258635377622
  C   7.41300768979947     -4.26348099557155     -0.03908613951584
  C   6.00655977590514     -4.70756642851417     -0.04058641942487
  N   5.71694798882284     -5.97344805067497     -0.03882712264483
  N   5.47101255280177     -7.07321235740030     -0.03711069678085
  O   8.42953388773231     -4.89696662002219     -0.03585960714789
  C   5.42497404655940     -1.20466992923845     -0.05221735518621
  N   6.03452096661126     -0.02955338925269     -0.05514422817691
  S   5.07289907641005      1.33505668564155     -0.06216001048634
  C   3.32262266990428      0.87275863960001     -0.06514764638923
  O   2.52139666819606      1.79177217021874     -0.07136153819679
  H   3.21519899777526     -3.29808008711394     -0.92898659182387
  H   3.21100604175843     -3.29278566501002      0.82765853499881
