26
Coordinates from ORCA-job 3753optt
  Br  2.03623525912758     -0.86127725644969      1.62260760401793
  C   3.54674651623215     -0.55037010840865      0.49732244927500
  C   4.12671573138132     -1.62103464760129     -0.21039168726891
  C   4.27438991250477     -3.07629948242328      0.19365901010271
  C   5.72028315520641     -3.43443983633421     -0.28125726884357
  C   6.85097305567609     -3.35882214718058      0.77662553885328
  O   7.92272798831040     -2.61206919752856      0.15385981195916
  C   7.22778954590203     -1.69962442535638     -0.58599721499960
  C   7.10440698611188     -0.35815950208506     -0.60948259696981
  C   7.58479162023259      0.83897640660528      0.15846975237812
  C   6.33920151036363      1.79390183977159      0.09920266234649
  N   5.21238906684990      0.97939882282890     -0.35570024926142
  C   5.75906572188008     -0.07753563543827     -1.11566780844857
  C   5.10434131882003     -1.32598476575686     -1.12520359899969
  N   6.10997580155387     -2.34393127139929     -1.18971008010957
  C   4.11838951387861      0.76043135169534      0.53656882790012
  O   3.77595975756371      1.67987029672058      1.28208065499580
  H   3.55064770360742     -3.73448492647373     -0.29391180344550
  H   4.14151950553753     -3.19390525428516      1.27201986318396
  H   5.74220068479577     -4.39616848245148     -0.79551468511962
  H   7.24599876126412     -4.32654130528282      1.07999969709434
  H   6.50765994469672     -2.79728999667496      1.65200236051428
  H   8.45612895695596      1.32689650502737     -0.28157621423059
  H   7.83898204618476      0.56588508805617      1.18510610898837
  H   6.53007066968806      2.58995418263770     -0.62465919685728
  H   6.08240926567450      2.24562374778736      1.05454806294455
