24
Coordinates from ORCA-job 3756optt
  Br  1.11129660341027     -0.31868796916247     -0.22714670099823
  C   3.00597863813204     -0.08053614168418     -0.09617448706890
  C   3.59907437104042      1.06407161339545     -0.53948752304634
  C   2.87420724599029      2.23533565494863     -1.14275947625423
  C   3.26438558339240      3.52919169613773     -0.48847735522921
  C   4.44855856720725      4.05074161431873     -0.02210940494399
  O   5.68652737469619      3.53047312583720     -0.06868542313604
  C   5.78684555074269      2.33632025771860     -0.88877859622162
  C   5.03068632711073      1.15469819010405     -0.40907895886095
  C   5.68394232032353      0.07652977780590      0.19914824106972
  N   5.12906670164656     -1.02750918050453      0.63123817284728
  C   3.75499242882066     -1.14652921856194      0.48302782505109
  C   3.15804368020956     -2.34024651036393      0.92993863450936
  N   2.68745277414504     -3.33260801981165      1.30495589466235
  N   4.26209070325298      5.27486035666848      0.55190452255443
  C   2.97890977489783      5.51231855989043      0.45034304185154
  N   2.33388774601584      4.50069771029502     -0.17291552257412
  H   1.79821888806356      2.10069241930256     -1.04006058045530
  H   3.07741067592550      2.27815349285290     -2.22038718375972
  H   6.85307215371333      2.11440441656379     -0.89824303639374
  H   5.48804324109735      2.64002197210573     -1.90054130281801
  H   6.76522276341562      0.13987209084686      0.32618624534153
  H   2.47052318067263      6.39348104189795      0.80739783753305
  H   1.34356270607769      4.42025304939867     -0.32329486365998
