28
Coordinates from ORCA-job 3757optt
  Br  0.81692365399265     -0.78776259970536     -0.12834153556334
  C   2.74209182322169     -0.49462423366719     -0.04706958488157
  C   3.58439972483935     -1.51918339472261      0.26396539574609
  C   3.16906691091039     -2.91845998690250      0.59070515054195
  C   3.59136991202843     -3.96732640044243     -0.44940599262516
  C   5.09452624310893     -4.31552991840286     -0.42471594820805
  O   5.99059174830523     -3.28462723802986     -0.66798986538656
  C   6.00599149616991     -2.25634779206888      0.36488071638095
  C   4.97824868677755     -1.20621138768446      0.21514482423689
  N   5.38447508708800      0.04895479642206     -0.20364268829621
  C   4.44762133550150      0.91823701579431     -0.44257551545852
  N   3.09934200169032      0.76418375233957     -0.36489444045856
  O   2.90171858200830     -5.18526758776534     -0.12635800024024
  C   2.30938880345858     -5.74542286897630     -1.28985680451173
  C   1.94692471770676     -4.55778437602882     -2.16352669716626
  C   3.09292854426520     -3.60635659229265     -1.84967010414602
  O   3.53928040912050     -2.77459065138994     -2.58221038344893
  H   2.08824543193435     -2.98615041549421      0.69958612566795
  H   3.60834215322261     -3.23285258384471      1.54544591740194
  H   5.27659087212657     -5.08791922085600     -1.17819978235791
  H   5.26734650356333     -4.76730561689309      0.56578900675486
  H   6.98509915025119     -1.78676325661927      0.28691292417953
  H   5.94538036998137     -2.79676231299578      1.32333271493077
  H   4.77040803201854      1.91075026822516     -0.75138382403411
  H   1.45699342726297     -6.34396508855451     -0.97065322809222
  H   3.02249771724953     -6.40192480796656     -1.80490571593696
  H   1.02471467663109     -4.08455557087590     -1.81455127535720
  H   1.87749198556501     -4.75743193060175     -3.22981138967135
