26
Coordinates from ORCA-job 3759optt
  Br  0.82906501845844      0.45113035958211      0.73355448253817
  C   3.07443039300172     -0.00195937695290     -0.27317958763013
  C   3.71613968594123     -1.18746977109140      0.00834196437179
  C   2.89882425781822     -2.43195186541804      0.28395016450165
  C   3.68825903053465     -3.65569201626811     -0.04469779318537
  C   3.33625817239653     -4.89688269373469     -0.44691665065337
  O   4.43882998904780     -5.66528989804776     -0.65604873505559
  C   5.51523727272876     -4.88487741980932     -0.38441339812588
  C   5.12048152840666     -3.64957569765939     -0.00335432538151
  C   5.89558812134620     -2.43100325993200      0.37549655851269
  C   5.12294352632629     -1.16045582227251      0.07485133502497
  C   5.83067776984268      0.02281865625906     -0.10335947721673
  C   7.24593058048601      0.06511528065810     -0.01843371804804
  C   8.44716936798140      0.13938064027236      0.05470518803058
  C   5.14558023907695      1.27572843775727     -0.37544032604415
  N   5.63107911183337      2.45147074825213     -0.56459478163062
  N   3.75927264082958      1.12785678212186     -0.44520882984866
  H   1.96832048908015     -2.38559470418178     -0.28086200490665
  H   2.60516957348480     -2.44579997626857      1.33993439332596
  H   2.38810017747911     -5.36981657148405     -0.63603178748653
  H   6.47961812944076     -5.34436452295185     -0.51837371301496
  H   6.86407479245591     -2.40479872363668     -0.12422279062632
  H   6.10799345669312     -2.43916789455750      1.45117852095826
  H   9.50549717145820      0.20056662518991      0.12200119644955
  H   6.64353936239003      2.41881574874693     -0.49089777507634
  H   3.24692014146124      1.98481693542686     -0.61297810978279
