24
Coordinates from ORCA-job 3764optt
  Br  1.26144040002418      0.20351098966124      1.06250085411538
  C   2.93732010108033     -0.05887588181965     -0.07277031716419
  C   3.59067444561819     -1.27374681859825      0.11183999553720
  C   2.81824118491754     -2.55997716536484      0.28337513859366
  C   3.69031052170259     -3.72550476357365     -0.06292399356228
  C   3.43050610782405     -5.01184118833837     -0.38322606785325
  O   4.57220109878264     -5.70591763141122     -0.60093324566358
  C   5.60891529222443     -4.83245892131075     -0.42065744944418
  C   5.11988531972518     -3.61004424537274     -0.09190874734804
  N   5.72824165549120     -2.40634793584395      0.18468778600804
  C   4.98662038044420     -1.22450696665357      0.16918331720436
  N   5.72758821867506     -0.12275756200389      0.23272226984896
  C   5.11224097523591      1.08122073689108      0.17346700615215
  N   5.67117090052397      2.22066459862013      0.37673981338572
  N   3.72038795526224      1.08877932417921     -0.20466685597093
  C   3.21231826401515      2.20702498594872     -0.84161548400627
  O   2.09471594236854      2.28963388218252     -1.28865603774917
  H   1.92326553712485     -2.54038655705876     -0.34177865546673
  H   2.46252373032452     -2.64675848449102      1.31732366888015
  H   2.51322987376019     -5.56462788285488     -0.49212020062073
  H   6.59957454145321     -5.22482303966936     -0.56298247689651
  H   6.71839698037465     -2.27875209821077      0.05413216446019
  H   6.65272298928928      2.03956134342619      0.56838713279179
  H   3.95550758375780      3.00793128166660     -0.89711961523173
