32
Coordinates from ORCA-job 3775optt
  Br  0.82576487977381      0.20032778446405      1.85738479630736
  C   2.47593483532568      0.13474296047344      0.84928990726162
  C   3.41908295365193      1.18386121999393      1.11918906439735
  C   2.87810492472882      2.61100270081460      0.80759153869947
  C   2.06832090375088      2.48281918997573     -0.49399285995719
  C   0.93633170936982      3.37264392799378     -0.94557541555947
  O   0.14929023357166      2.60641803852986     -1.88782394821916
  C   0.72740571774531      1.39738904984385     -2.41209573169397
  C   2.20175249343956      1.63943087394611     -2.74854806281527
  N   2.93261170427129      2.28391867852675     -1.65343906880845
  C   0.33129980290965      0.13906605362428     -1.55783544155577
  C   1.32731402133730     -0.98750509345882     -1.13242357541762
  C   2.55569941720405     -0.56187474126057     -0.34687210747461
  C   3.81300842064366     -0.69936896244189     -0.94929521782088
  C   4.97748360566505     -0.08765811524097     -0.38270654497064
  O   6.15356931767936     -0.26781734052447     -0.72516988607440
  N   4.69546128053741      0.86182159244085      0.59943865517181
  H   3.70985417648558      3.31341476448837      0.71188247394847
  H   2.21957885512557      2.95544197867440      1.60831030076712
  H   1.51111961873049      1.58127454614509     -0.28783653558350
  H   1.28527561428513      4.28454220191541     -1.44130210711920
  H   0.27426603633515      3.63224445246721     -0.11518381028383
  H   0.21806821312816      1.28232392971999     -3.37110379244120
  H   2.22103675822722      2.28647167197334     -3.63140682444822
  H   2.67629597388176      0.69172303460270     -3.02119255747227
  H   3.71232135167552      1.69711858169120     -1.39153894168384
  H   -0.45509579062557     -0.38014551067507     -2.11434004028991
  H   -0.16084390682111      0.52227524003807     -0.66576254637817
  H   1.66755444458456     -1.52885716289232     -2.01858818146680
  H   0.72697937637698     -1.68902027922297     -0.54547052033581
  H   3.93659486943218     -1.25859842396777     -1.86586162173732
  H   5.50855818757308      1.36657315734180      0.92027860305431
