29
Coordinates from ORCA-job 3776optt
  Br  1.03967135356529     -0.30875667706006      0.33627073409714
  C   3.32522819739469      0.00325615811855      0.69269375109910
  C   4.12380988143404     -1.10172282027702      0.44388769008044
  C   3.87453569629851     -2.55507310646650      0.71039017606904
  C   5.22191105978588     -3.24220746564267      0.34978402282821
  C   6.07671231758871     -2.17470966482564     -0.42071543273035
  O   7.45533544959388     -2.15423235177075     -0.07663777578106
  C   7.86872226906459     -1.40346008206006      1.05525013228527
  C   7.66494842044492     -2.16009138720797      2.36454346938968
  N   6.28117608630034     -2.63030947857988      2.48007029835468
  C   6.01525049897013     -3.66677811870643      1.55973647036472
  N   6.53834436402853     -4.80601175595117      1.74700788976773
  C   5.31930236183301     -0.87222018035275     -0.23134835555736
  N   5.77219860554543      0.26893277276513     -0.69769368464552
  C   4.98272132965169      1.37446329007452     -0.48817344383390
  N   5.23288135893268      2.57535144891345     -0.86976069722189
  N   3.78950254543978      1.17679756923213      0.24001985818710
  H   3.06672228791328     -2.93131576989500      0.07789386936914
  H   3.57696062301545     -2.76036003507038      1.74226256844153
  H   5.05769807612485     -4.11916737713909     -0.27593198775162
  H   6.07698505721225     -2.41260744394938     -1.48671174327639
  H   7.34014603142321     -0.44694530452971      1.08220096558189
  H   8.92930630620638     -1.19345734602266      0.89975155395442
  H   8.31023994556555     -3.03572362312601      2.41679917581657
  H   7.90080417792604     -1.50500817021817      3.20653598819949
  H   5.64917485353501     -1.85046602632737      2.32214180089315
  H   6.31713100193203     -5.41861443865606      0.96588299133464
  H   6.11979590496696      2.56454174820002     -1.36466978046799
  H   3.24278393830669      2.01489563653100      0.37951949515213
