23
Coordinates from ORCA-job 3781optt
  Br  6.36116179038323      3.81336325786838      0.27520823121398
  C   5.37405576907533      3.20759333553493      1.78442836640961
  C   4.73907071178595      1.92775510136406      1.76041398399357
  C   5.49681407116255      0.84561335993291      1.07450957696774
  C   6.75948732228138      0.72059578533604      1.51636043225065
  C   8.02247928251114      0.27796762211221      0.82022502057262
  O   8.90738485278344      1.36570567984672      1.15455069795366
  C   8.30218829302016      2.01056040024874      2.21330641974554
  N   7.19618625428530      1.48597860522812      2.61139713523531
  N   8.90294393459412      3.13262382605873      2.65062073807415
  C   8.16631335035050      4.12454996652588      3.13766595611509
  N   6.88446739202517      4.35401263868298      3.36252697155379
  C   5.78769691054841      3.68372087842944      3.03933088979113
  O   4.97754657530052      3.41513156020776      4.07296245627067
  C   3.68818810552694      2.89459200289867      3.73880710078884
  C   3.80317041180325      1.69342128206744      2.80674988297731
  O   3.16037026161108      0.66510603605917      3.02608623484748
  H   5.13451662507388      0.31249522060061      0.20484152771845
  H   7.93179091847981      0.22287484667714     -0.26223908443344
  H   8.44239855556690     -0.65124959589219      1.21813760334686
  H   8.78312002043883      4.96768375448013      3.44994999235212
  H   3.10429336763332      3.68994057741154      3.26137879429849
  H   3.22735522375869      2.58996385832057      4.67378107195633
