23
Coordinates from ORCA-job 3782optt
  Br  3.77307376668963      0.47526878415615      3.59776402747829
  C   2.87737342750304      0.94283775379225      1.93416715987773
  C   3.31751617473674      0.49496920450973      0.70748196101840
  C   4.37082355257434     -0.60721945810017      0.58315315737245
  C   4.15256864467160     -1.90293489313891     -0.16699748136045
  C   3.72275066356240     -2.32827176834149     -1.39685051640728
  O   3.10314095637541     -1.59630499663864     -2.37794508028641
  C   2.60953887344308     -0.48513389487854     -1.71584994764835
  N   3.26272128712371      0.58555868907596     -1.65291711092619
  C   2.96773621398225      1.26753587409528     -0.44897015869372
  N   2.50898508940742      2.50697022413301     -0.51655125657626
  C   2.10800429573928      3.18482613592259      0.57426918792860
  N   1.83439094819489      4.43504519291809      0.66166619295924
  S   1.76197380315474      2.26286294100862      2.10303495027618
  C   3.98627122025863     -3.72532661980359     -1.50534919265112
  C   4.57696281077021     -4.06484524422650     -0.33836263938490
  O   4.68270424250905     -2.99499851998935      0.47051580802884
  H   4.64852154779118     -0.91832857846624      1.58747075877519
  H   5.26445767813342     -0.14666060806699      0.14721003046502
  H   1.73260707835783     -0.72169427267487     -1.10971012401449
  H   1.98234849880983      4.84168003291411     -0.26314613979513
  H   3.75913815458055     -4.36125861074742     -2.34342634501190
  H   4.95339107163068     -4.99557736745303      0.04934275857627
