25
Coordinates from ORCA-job 3794optt
  Br  4.23040505242084      1.71858584166772      3.93064081355016
  C   3.73112516735719      0.20063728610323      2.08279948348643
  C   3.27836032703850      0.80373602204747      0.94099663200469
  C   2.36323315419273      1.99210239593591      0.99532152774482
  C   1.07969003385538      1.96932006848849      0.20302620622664
  C   0.66620178277893      1.08749903139701     -0.74925578776180
  O   1.27593099671387     -0.03276164709022     -1.22067705824580
  C   2.38066394989651      0.19405209266246     -2.06967857561850
  O   3.40017262986374      0.90636623966923     -1.44610254353064
  C   3.84064172908279      0.32560250771732     -0.26388302529770
  C   4.77700722154965     -0.65440895701895     -0.31287187980178
  C   5.22253555552574     -1.26881457099583      0.90868652037127
  N   6.07328505806715     -2.20316191013354      1.08383917045066
  O   4.62199310543551     -0.78740484066665      2.05707592176490
  S   -0.88285642290156      1.49008648962755     -1.41875592014425
  C   -1.00061550247961      2.86672551395143     -0.40671960041445
  C   0.09391380389893      2.99254502959522      0.38486431312956
  H   2.91619851806668      2.88633282277311      0.68161221826031
  H   2.11803381998749      2.15774625420711      2.04555899767281
  H   2.08098286771984      0.79072480030126     -2.93440941011782
  H   2.71168219461285     -0.80553065637267     -2.35823419567328
  H   5.19598578776961     -0.98228625881073     -1.25351412404376
  H   6.44234792033699     -2.48226531931035      0.17968216841272
  H   -1.87912436572408      3.49056419227903     -0.43239874006070
  H   0.21620561493420      3.78600757197536      1.11039688763555
