20
Coordinates from ORCA-job 3806optt
  Br  1.11236562990494     -0.02300647572889     -0.09488498870027
  C   2.99927850954822      0.02734365621479     -0.09590953767580
  C   3.67120934597624      1.21494115437997     -0.09543592329991
  C   3.24870839117178      2.61182978786976     -0.09425849411277
  C   4.39146823503844      3.35134562639556     -0.09395354238822
  C   4.92006175708684      4.75325624016769     -0.09291649412794
  O   4.30863202109578      5.79017808151606     -0.09204271555704
  N   6.34782499872801      4.67295996500235     -0.09315156319662
  C   6.65822561141639      3.39116613361001     -0.09438314509184
  C   8.02144877096116      2.95217339421005     -0.09488781915426
  C   9.14549628301261      2.53464620971214     -0.09478584308163
  C   5.54080272775077      2.50252816790870     -0.09495249202769
  C   5.11464948648594      1.17105319291707     -0.09594878415567
  C   5.74383433222815     -0.09279439275373     -0.09707769964008
  N   5.10901669882547     -1.22901030954525     -0.09765574664426
  C   3.71349733421810     -1.25801649468331     -0.09711920058058
  O   3.11247515597713     -2.32751531921244     -0.09761533070785
  H   2.22509465394438      2.95243271998719     -0.09370394448338
  H   10.14547993691553      2.17417989479173     -0.09482777035743
  H   6.83143011971404     -0.13969123275949     -0.09748896501677
