27
Coordinates from ORCA-job 3810optt
  Br  2.12741208894348     -1.70723148008545      0.49614622341305
  C   3.70171827632721     -0.32882494946108      0.58988152052755
  C   3.39145004214077      1.02979325567398      0.63830539623345
  C   2.16277654334540      1.53741357673848      1.34635729916870
  C   1.10614505362333      1.99850823579048      0.37255830101242
  C   0.08878234489215      1.21083497911533     -0.07496585694705
  S   -0.88545115355095      2.00398270796605     -1.23718514846060
  C   0.05983990347097      3.42436841410858     -1.12934958696874
  C   1.08739964727264      3.29586788674122     -0.24236096558540
  C   2.04918744827822      4.41171926529759      0.05218392449787
  C   3.47649647389291      4.24458730599321     -0.49130140815222
  C   4.39978291899477      3.34402488454544      0.34193322289702
  C   4.33220668572568      1.86502976192920      0.04372194352825
  N   5.28365083906184      1.43516945650827     -0.80140089680849
  C   5.42449310770124      0.12464883767962     -1.02578649398758
  O   6.10165644244506     -0.42956967445049     -1.85394710475725
  O   4.74362399555399     -0.75618788630480     -0.11470355310701
  H   2.42315990061386      2.36768097090751      2.01101391199304
  H   1.75796995923616      0.74070544317752      1.96936234427643
  H   -0.10091975568772      0.18406580157803      0.19435747869161
  H   -0.18862900165108      4.29531948997768     -1.71564253486802
  H   2.10798084837695      4.56425783126255      1.13581053114589
  H   1.62562642037558      5.32905269991692     -0.36355947395209
  H   3.92617024133078      5.24099483604679     -0.52416993273314
  H   3.44393366340076      3.87659365298236     -1.51946248074736
  H   4.20519907666352      3.52605315610889      1.40359209753881
  H   5.43233798922242      3.63114154025606      0.14161124215088
