25
Coordinates from ORCA-job 3812optt
  Br  1.01081970358672     -0.49779815533613     -0.13921430191132
  C   2.90098952429664     -0.25253304293869     -0.05398069169679
  C   3.69203468303613     -1.36865714370904     -0.07534878248084
  C   3.40109501784296     -2.85351233085561     -0.14473186117956
  C   4.80472854616689     -3.41701765840583     -0.14968619173771
  C   5.70202104918597     -2.37737662868833     -0.06756312575936
  S   7.33200838893856     -2.88999337049420     -0.02393527995175
  C   6.81496570397512     -4.56136567635107     -0.11719131906084
  C   7.86622458913781     -5.61296699917606     -0.20853281136312
  C   7.53681024890007     -7.00450345031056      0.25450892587342
  O   6.48248727666367     -7.41119831618718      0.65498165260474
  C   5.45034083634563     -4.67221953222792     -0.17898460136232
  N   5.09147754703697     -1.16438550615911     -0.01719710121911
  C   5.73740827352848      0.10191533058168      0.05770047216688
  O   6.97860315403431      0.09061386957163      0.09427605897467
  C   4.84500080945109      1.18751488606027      0.07956363330018
  C   3.43883774159817      1.02830879949574      0.02392880915467
  H   2.82217131770055     -3.11795873087369     -1.03892768098439
  H   2.80541158087430     -3.19443518290736      0.71336943630502
  H   8.76303437875164     -5.32405210550809      0.35565367779525
  H   8.23827835727298     -5.75209870810150     -1.23733865855617
  H   8.40225443241969     -7.69840992257166      0.18022061411634
  H   4.94908806952970     -5.62803203633377     -0.23017185165641
  H   5.28483678219587      2.17238312334330      0.14107044380987
  H   2.78407198753002      1.88777848808323      0.03953053481866
