21
Coordinates from ORCA-job 3813optt
  Br  1.10432617818464     -0.90786764938154      1.18178661498193
  C   2.51697948061427     -0.24266775792147      0.07901108016280
  C   3.71285695618538     -0.98937503960192      0.02404566643185
  C   4.12543617683861     -2.17966456658385      0.61609654265101
  C   5.44852269194793     -2.43381490063239      0.21826350359708
  C   5.86910427363442     -1.36736213070805     -0.64165399413799
  S   7.27314118356351     -1.21315886564911     -1.66635454743742
  C   8.68013156416255     -1.66524050300286     -0.69273166641595
  N   9.80571787883317     -1.10057471322465     -0.89006897322351
  C   8.67275853632980     -2.83027521425424      0.20770572576124
  C   7.70038037908845     -3.59270458360743      0.71439685948477
  C   6.20310425426077     -3.55864807813718      0.71834806421930
  O   5.65945968756083     -4.50927570485110      1.27503286428835
  C   4.80990757908204     -0.49301310168253     -0.76589370197472
  S   4.61912599250032      0.94504122356808     -1.69143506989192
  N   3.05597294628317      1.50116440733920     -1.34878482518369
  N   2.24260600745726      0.87013906854010     -0.54272074699593
  H   3.56068099801905     -2.79189675328238      1.30051832885063
  H   9.70772967209358     -0.30531108279297     -1.52066959226661
  H   9.69122626997331     -3.09605933693210      0.47373588528110
  H   8.03083129338684     -4.42943471720158      1.32237198181769
