26
Coordinates from ORCA-job 3814optt
  Br  1.12972828708236     -0.32613690421524     -0.19276702742568
  C   3.00964463154561     -0.12829527676039     -0.08899783973014
  C   3.58801992239327      1.07752660187169     -0.35141275904171
  C   2.83365396601629      2.33024312350562     -0.70526043712590
  C   3.49609845259600      3.59056418710104     -0.20499860985822
  C   2.72679600534720      4.64372324577585      0.23606938970392
  S   3.45970186540983      6.10599556283022      0.83012063138989
  C   5.21683565127367      5.92572985673436      0.29650198562698
  N   5.93938692324634      6.98780956042466      0.36881522372704
  N   5.68202626257017      4.73123782862236     -0.07913210248144
  C   4.88437095934825      3.66523238863603     -0.27650787131149
  C   5.61308824057346      2.44033726849777     -0.74188764986653
  N   4.95592192834018      1.19096222254739     -0.32458289570874
  C   5.71667961135409      0.10965003431836     -0.01272808062529
  C   5.18994443717084     -1.09477723945970      0.28346754270176
  C   3.75745582852373     -1.32807991600809      0.26554995336311
  N   3.17067237603460     -2.44589680168207      0.52583127953985
  H   1.82443232556414      2.25198056834969     -0.30995201816666
  H   2.73534670045988      2.35390482990769     -1.80005514442196
  H   1.64649905715548      4.60379856353716      0.26833842666340
  H   5.37944056882223      7.77892447021484      0.67286536550652
  H   6.61592324430490      2.45272352199713     -0.31883216243652
  H   5.71273964763021      2.42436585782732     -1.83658091328560
  H   6.78394156518495      0.28580247976803     -0.01165873826630
  H   5.84841081144446     -1.91356013145421      0.54203246690900
  H   3.86924073060778     -3.14976590288755      0.75676198462072
