26
Coordinates from ORCA-job 3816optt
  Br  1.06138299559310     -0.07042512873279     -0.29795610977613
  C   2.96291981779236     -0.01928468156478     -0.06951085079798
  C   3.69394980221071      1.08544998882899     -0.47581323440541
  C   3.11868261482465      2.31059638596748     -1.13684269912962
  C   3.26956427266832      3.49921521220461     -0.23798175136272
  C   4.50476961375252      3.90681430968229      0.27075489646584
  S   4.21080657189535      5.21307783937856      1.36482994417313
  N   2.55663704456723      5.24559569728019      1.13960988044930
  C   2.23838017609506      4.28195512702549      0.28493518712310
  C   5.86950630773335      3.44043048659836     -0.07353296358212
  N   5.88875802562332      2.11256551650342     -0.70619395799454
  C   5.08929011323079      1.05389778774351     -0.24667050065866
  C   5.67530480886883     -0.07310767347011      0.32544139055563
  C   4.90804799048406     -1.16888981636749      0.69121354045488
  C   3.53721458646159     -1.14655635291330      0.50707350706121
  C   6.35668664649728      4.48327916450757     -1.05788585975826
  O   6.94299564093106      5.51075316939670     -0.70577430241399
  H   2.07149778165024      2.16023952897057     -1.38809084680146
  H   3.67639961008682      2.46976385124626     -2.06764529722170
  H   1.19174696849144      4.13733256867123      0.03297609829008
  H   6.51599872123443      3.47226641806416      0.81630422775873
  H   6.85162488404160      1.82629954984706     -0.82486193382137
  H   6.74610890845963     -0.07589911782787      0.49403816015381
  H   5.37620586982125     -2.03577066273567      1.14025567100851
  H   2.91678131878064     -1.98144560248150      0.79992834463681
  H   5.94673890820430      4.34584643417704     -2.07560054040706
