26
Coordinates from ORCA-job 3820optt
  Br  1.06693992158325     -0.67483925637169      0.04623040439490
  C   2.99832103169931     -0.43265033240310     -0.18660222834579
  C   3.39657894572555      0.78956932994455     -0.75817041799651
  C   2.85755960036104      2.20267002790853     -0.74954184196882
  C   4.15017396363694      3.04110296602351     -0.48272925609399
  N   5.28420498711693      2.20246530989686     -0.90822559852494
  C   6.39776529778765      2.23116609476046      0.08473351636456
  C   5.71085822265988      2.62736721152364      1.40188853468471
  C   4.42050264558808      3.32432431066711      0.99565032696344
  O   3.73153975451304      4.00847802898669      1.70539733812606
  C   6.93780039875403      0.77441376765629      0.08124741389865
  C   5.67268854471506      0.00191823229305     -0.21816813565876
  C   4.79529365987705      0.88501986433642     -0.74430029757870
  C   5.13290843324164     -1.25158633688623      0.22560443556810
  N   3.74200349586810     -1.40003257033705      0.21057735115069
  C   5.93424943007611     -2.27757475908761      0.73250324993793
  C   6.68457212168740     -3.13246800590586      1.16737478975309
  H   2.11444331108518      2.38264677577375      0.03080204275611
  H   2.41490808043305      2.51259643937161     -1.70062731916266
  H   4.12664124219458      4.00152185459735     -1.00414014341088
  H   7.15291113514546      2.96500288830530     -0.20391764301532
  H   6.30171007969810      3.25929544486071      2.06272784302478
  H   5.41757690761325      1.72830720941218      1.95440548084846
  H   7.37622681261664      0.50285621237423      1.04454904227433
  H   7.71400492219400      0.65016270521786     -0.68177763504678
  H   7.32561705412858     -3.89273341291858      1.53850874705736
