25
Coordinates from ORCA-job 3826optt
  Br  2.06854073393315      1.67592152045895      3.20576261133237
  C   3.12605173168952      0.92228634140099      1.70568510328657
  C   3.63260823757480      1.81028684805516      0.78640251340969
  C   2.68022894039644      2.81773291309910      0.17567772871298
  C   1.40894877366102      2.07072692838037     -0.21787628754818
  N   0.79879224817377      2.14336835877060     -1.54529390786042
  C   1.43919827492415      0.88691983021170     -1.10492549878114
  C   0.41950342215018     -0.23224670156926     -0.95817196484679
  N   0.68609695383212     -1.59229064163608     -0.55372316131425
  C   1.56125045171271     -2.35344743504288     -0.10138970035204
  O   2.86870658125902     -2.23228381080610      0.28373418126311
  C   3.40754094293999     -0.97380803888656      0.48890656226796
  N   3.05980447811539     -0.38125330463645      1.63122557692354
  C   4.27184840341481     -0.50740745862903     -0.53719718943160
  N   4.64187004037599     -1.11875540704861     -1.61545554337516
  S   4.89026373135038      1.14137076383083     -0.24782522571129
  H   3.14681159592537      3.27071736133369     -0.70131795159719
  H   2.42674342543305      3.62140587079686      0.87078166561477
  H   0.67176056846341      2.02799709270744      0.57794259630837
  H   1.42819016766065      2.62986103834182     -2.17648259483242
  H   2.37546935579167      0.63598571993113     -1.58787713097263
  H   -0.06758981852681     -0.32586497606306     -1.93408868558346
  H   -0.36300968371061      0.13546698177197     -0.28749498820938
  H   1.30795451902690     -3.40612798015444      0.03324295438270
  H   4.27741592443287     -2.07156181461815     -1.58824166308611
