24
Coordinates from ORCA-job 3830optt
  Br  0.96433679492382     -0.41077211441155     -0.72087827489739
  C   3.00282358939694      0.03491260287360      0.36579285509180
  C   3.51765721097490      1.32086658014811      0.24534603564775
  C   2.67399765516976      2.46266189838717      0.30774349920708
  C   3.26711820597002      3.67575472175787      0.20855090505906
  N   2.72940840636946      4.94259400767603      0.24487233695080
  C   3.76892841160849      5.84399626047489      0.02639781815862
  N   3.82546665778475      7.14783020986341     -0.09463028510884
  C   5.18937303348670      7.36187239459122     -0.28941642406829
  C   5.95270796533292      6.21645777857843     -0.27802342181098
  C   5.01176326991779      5.15649890347260     -0.06526627705059
  C   4.72857637393974      3.78757651704712      0.04160468798425
  N   5.51575303506335      2.70570858453711     -0.02774334097095
  C   4.93303247277758      1.51553870063014      0.06066257338100
  C   5.73305253877622      0.33238568532097     -0.06615436962748
  C   5.17483559603439     -0.89239421544473      0.00411995391497
  N   3.82302696593761     -1.01316221124312      0.23238216826408
  H   1.60661611711088      2.31826292117428      0.41400962799312
  H   1.75739940907289      5.14058140558772      0.07069425301490
  H   5.55482232731996      8.37005329779239     -0.43222254217895
  H   7.02219002862117      6.15377132417958     -0.39995756963379
  H   6.79116478059183      0.44774273463309     -0.25725853202875
  H   5.72989288362292     -1.81259134300895     -0.10850413798202
  H   3.41505627019556     -1.93514664461765      0.29887846069059
