30
Coordinates from ORCA-job 3834optt
  Br  0.94953431653379     -0.14526453235469     -0.40137880276746
  C   2.83548537660514     -0.04961994861026     -0.15685522120776
  C   3.56524477664316     -1.22102062824753      0.17127838048916
  C   2.92128547670264     -2.55326429524881      0.42010753714498
  C   3.94820016352989     -3.65409021918139      0.68258462868223
  N   4.99542268697650     -3.13041863319725      1.58213720309203
  C   5.77179045028673     -2.27019192058847      0.66204461157049
  C   5.98728578409512     -3.16847655324616     -0.59015623239798
  C   5.98790288146899     -2.54410280098481     -1.99055083307406
  C   5.16879644015041     -3.53775034872144     -2.81282318511032
  N   4.11956554079732     -3.93024103207756     -1.87693778928850
  C   4.74571883416185     -4.10261448550785     -0.57188513681497
  C   4.94187925690706     -1.05740661942814      0.35935773851108
  C   5.52216153014277      0.16472877885633      0.19900911643958
  O   4.80737273387580      1.28321035981549     -0.15230548106901
  C   3.41349021031382      1.22244615822947     -0.34172332281464
  O   2.88554922583410      2.28004463292480     -0.64262301784201
  H   2.29616563314402     -2.84130167622598     -0.42961702702161
  H   2.25539572152321     -2.48804537726615      1.29047566685533
  H   3.45288858763016     -4.50189107364374      1.16037639467659
  H   5.58667917860550     -3.90657467437188      1.87005543658251
  H   6.71398503387826     -1.97481859997573      1.12659172400888
  H   6.89581682525243     -3.75916737054115     -0.44298512380366
  H   6.99108434269701     -2.40007373921956     -2.39281360778239
  H   5.47949072811423     -1.58028474914088     -1.96828891353023
  H   5.80229179348803     -4.38746833289260     -3.11855682782780
  H   4.73880025555835     -3.09361777890416     -3.71233244036820
  H   3.60699561494605     -4.74662409469885     -2.18045246896789
  H   5.06652865115217     -5.14336033429959     -0.41311316006026
  H   6.57519194898542      0.36825988874860      0.33338015369589
