27
Coordinates from ORCA-job 3844optt
  Br  1.33806780012476      1.87702506290049      0.07970728507592
  C   2.89842706046532      0.78512899334356      0.15207755043632
  C   2.79432214201905     -0.53599775592138     -0.00886670405770
  C   1.56467429466978     -1.37595583490193     -0.20375476247264
  C   2.06025893744040     -2.79397513803598      0.13824552590519
  N   1.97997071465001     -3.07334944372893      1.59470145704184
  C   3.35310608726481     -3.20798829759072      2.11735311528668
  C   4.21451301128553     -3.59122378788518      0.91774141942303
  C   3.58138405994440     -2.75759815952224     -0.18796386238740
  N   3.91261015620334     -1.34993336219393     -0.05421086494357
  C   5.19369278263888     -0.91993190836587     -0.53924096039248
  O   5.94764538799132     -1.79578576362726     -1.01841809475646
  C   5.52131513897135      0.46241321703976     -0.46045781684449
  N   6.62835957711628      1.01282987952110     -0.89838882933379
  S   4.43003752971183      1.58920010500039      0.41594836742110
  C   1.35042317864075     -3.83019454412775     -0.61207095679089
  C   0.76052031293961     -4.69615028668635     -1.19659672431402
  H   1.23939772579879     -1.32790712074831     -1.24657473476178
  H   0.73538102410620     -1.08343818998704      0.43646425857354
  H   1.47462181058111     -3.93816254284142      1.73086126639453
  H   3.37301583667647     -3.93844769835401      2.92601957041491
  H   3.68056518035988     -2.24670611173657      2.51651589116100
  H   4.10233377888575     -4.65401704431077      0.68388700685545
  H   5.27158529755305     -3.35264315881498      1.01972896272646
  H   3.82334715075717     -3.12173650457592     -1.18688292607381
  H   7.18663054265958      0.25372424524924     -1.29406451132770
  H   0.24479348054447     -5.46017884909794     -1.72575992825924
