30
Coordinates from ORCA-job 3847optt
  Br  0.49793542654633     -0.04830676969515     -0.39534879697228
  C   2.95060287147763     -0.07219273069704      0.32462159507278
  C   3.53914864825543     -1.32404191031206      0.30351655012987
  C   2.92545872896337     -2.66125331792806      0.61231204484727
  C   4.11573935431430     -3.64732908895779      0.59906614956127
  N   3.76752238470870     -4.93852302090930      0.00571856410932
  C   3.41031258637206     -4.85131213655443     -1.41650713004467
  C   4.12343333167360     -3.71703501764663     -2.17668787847574
  C   5.48572861860080     -3.44482558617928     -1.55012917096944
  C   5.29390221211149     -2.91698306767544     -0.11982854436487
  C   4.86681549773562     -1.47190423703370     -0.11486104996270
  N   5.66949288559695     -0.48690537383798     -0.52034551680319
  C   5.07513821017645      0.68806820187093     -0.48590092313374
  C   3.75907956545860      0.97892735761261     -0.09427796107482
  C   3.61661775529871      2.40254351369615     -0.26658520601029
  C   4.80493392569413      2.84116884534694     -0.72102469049492
  O   5.71789422715913      1.83082148698732     -0.86320824797742
  H   2.18043248610864     -2.90905878240306     -0.14862904911044
  H   2.39714167955915     -2.67101622913166      1.56575615778850
  H   4.40936518079764     -3.84606131577944      1.63130488252605
  H   4.55963962375319     -5.56028633727559      0.11008395058687
  H   2.32852907258990     -4.73316601644985     -1.50860736895965
  H   3.66045501880005     -5.81478797439540     -1.86722811053763
  H   3.52766446005491     -2.80120927760391     -2.13111581366834
  H   4.21478785398490     -3.98128219343509     -3.23214642136709
  H   6.05337175550958     -2.71046806677923     -2.12423295077903
  H   6.07358499027489     -4.36963360024597     -1.53262365870571
  H   6.22971507722020     -3.03330265473913      0.43336381421737
  H   2.73035211412447      2.98748920999144     -0.08793446207698
  H   5.16020445707902      3.81986609015988     -0.99552075735033
