24
Coordinates from ORCA-job 3854optt
  Br  3.17982412901749     -0.23045038959687     -3.25189706788918
  C   3.86946381932301      0.30576726548677     -1.04115351514833
  C   3.46365523219071      1.50893239950211     -0.55717335955946
  C   2.88102345882510      2.63093262188195     -1.40109616531078
  C   1.47238828633463      2.70109452401854     -0.86763917726289
  N   0.73979117174352      1.66328500960825     -0.62738029096983
  C   -0.09132339415146      2.10113594364481      0.35903080494544
  C   -0.80942921107973      1.10297137855111      1.20732704367068
  C   0.12125769787075     -0.09931829521566      1.45850272271899
  O   1.37333012091132      0.31516385277168      2.01099451021606
  C   2.46900055801219      0.23603305000884      1.20563562589899
  N   2.78895997227999     -0.88559900339386      0.69612358887870
  O   3.83229267899423     -0.78635918247539     -0.26933831507050
  C   3.12703842616425      1.51852684116042      0.86116962353859
  N   3.15419418486545      2.47497672209905      1.71053076757358
  N   0.02492300451125      3.36755069913468      0.63504349468942
  O   1.05920767840633      3.77935678118748     -0.19961349655407
  H   2.90159774161025      2.33668505564004     -2.44938766702847
  H   3.35816722003355      3.60425646416474     -1.27766649044316
  H   -1.09893974084886      1.57794045752274      2.14397818168102
  H   -1.70935106685662      0.73011198345617      0.71146891869966
  H   -0.34392931611067     -0.77542788089443      2.17666439251008
  H   0.30097423581272     -0.63661792451469      0.52792317335559
  H   3.55788311214055      3.30705162625151      1.27795269685986
