21
Coordinates from ORCA-job 3855optt
  Br  1.45568155445800      0.34921477463374      0.22406601581711
  C   3.26090954483141     -0.18689223650386      0.18666571244766
  C   3.62119724929143     -1.49329390102338      0.09107392315437
  C   2.94693434203325     -2.72016361332688      0.00782386469815
  C   3.88897253442976     -3.75342463134844     -0.07704979695037
  N   3.52966694621943     -5.08399537775770     -0.20895176979465
  C   4.63267732524279     -5.92509247656810     -0.42256513037616
  C   5.61005145942414     -5.76383256269328      0.47877426056278
  C   6.83088895983816     -5.06135944409231     -0.06734876868822
  O   7.89537061925563     -5.53347589705065     -0.40728283313823
  N   6.49761655143707     -3.73299160959901     -0.13978914701128
  C   5.25864591486817     -3.23670328733368     -0.05265307886989
  C   5.05989334722646     -1.78046392710149      0.06281406577711
  N   5.98686042847305     -0.90236749490413      0.12836810868490
  O   5.57518933552363      0.40890278708183      0.23350313801339
  C   4.26347899600779      0.83879578595307      0.27009556034757
  O   4.08646833343864      2.02915580557455      0.36882948005961
  H   1.87514009545899     -2.84711381039988      0.00755112524378
  H   2.61805534930122     -5.27793186128308     -0.59244853370080
  H   4.80548874510518     -6.29031092068012     -1.43224208696931
  H   5.28581236813572     -5.35865610157716      1.43376589069247
