21
Coordinates from ORCA-job 3861optt
  Br  1.07190778225926      0.04210930721379     -0.02752419488728
  C   2.97232645876922      0.02342559649841     -0.02879131623382
  C   3.62533327258057     -1.20104144406119     -0.02905904230039
  C   3.15062530400262     -2.51334319600399     -0.02869699474146
  C   4.27155912179377     -3.36916666777950     -0.02917248820400
  N   4.34539420324082     -4.69765847290534     -0.02911252372354
  C   5.57327124980976     -5.21335392080524     -0.02939704877578
  C   5.71099533025703     -6.63116729394101     -0.02931487680504
  N   5.87632744337854     -7.77254301517681     -0.02923725433720
  C   6.82609702530494     -4.45028866165694     -0.02973878264169
  N   8.01625170899350     -4.89483370793378     -0.02983673842938
  O   6.70499169556508     -3.08405563310094     -0.03003311940022
  C   5.45754814771575     -2.54902230390631     -0.02964045916585
  C   5.10771715360168     -1.24297757699097     -0.02961678195940
  S   6.13457600022008      0.14838531011092     -0.03020992907200
  C   4.97895453730077      1.42388554301943     -0.02996705511471
  C   3.62628483203213      1.27206173786587     -0.02926735935266
  H   2.11698925101933     -2.81706577972674     -0.02823364713238
  H   8.00482848049779     -5.91120374938092     -0.02962537372156
  H   5.42770072410904      2.40689627803048     -0.03038899069347
  H   3.01732027754826      2.16695765063078     -0.02913602330815
