25
Coordinates from ORCA-job 3862optt
  Br  1.25947650877473      0.37159840763469      0.06663477252363
  C   3.11299393862850     -0.07523637956671      0.10031245544294
  C   3.50609489139664     -1.38659290834613     -0.08087782246074
  C   2.53800500153052     -2.50477417738204     -0.40377448938174
  C   3.35165041606026     -3.69265141647291     -0.86954401029175
  N   2.68126861077200     -4.98211895848773     -0.87080053785567
  C   3.72610281829833     -6.01691107483191     -0.75154661430965
  C   3.26543674100002     -7.05943119757060      0.19225440579933
  N   2.89499459858559     -7.86551099820360      0.92162967213544
  C   4.99727313916176     -5.27906857816356     -0.24017281429248
  O   5.94479357894287     -5.88976415773163      0.33075698689606
  C   4.50053093858582     -3.90641411023430      0.08918165992905
  O   5.44675317044291     -2.82922824319550     -0.09126387286474
  C   4.91319356236632     -1.61163619052598      0.00372228497124
  N   5.79655547192978     -0.63461594757036      0.16650025186403
  C   5.35372274476924      0.60730159327280      0.30745356627171
  C   4.01742371189657      0.95709264835894      0.30802201242475
  H   1.83071676147350     -2.16230115336129     -1.16327028668995
  H   1.95521958614060     -2.77825512402827      0.48035281555026
  H   3.80477841320441     -3.44987549355378     -1.84278354836503
  H   2.10177290797617     -5.11930567981065     -1.68859330770367
  H   3.92636162534986     -6.53163992926068     -1.70179147661799
  H   4.15268047131523     -3.80915237768156      1.13776766268466
  H   6.11265209834747      1.37223655550078      0.43957951898367
  H   3.69254829305083      1.97625489121204      0.45225071535664
