23
Coordinates from ORCA-job 3870optt
  Br  1.04142667779773     -0.20262142007772     -0.02640981820835
  C   2.92247493047603     -0.11244721834126      0.03842267639679
  C   3.66634038824946     -1.27454101983557      0.02963876936967
  C   3.16649902424906     -2.59698225179974     -0.01280627854604
  C   4.05448878040525     -3.64975951637306     -0.02092157296990
  N   3.83525311581438     -4.98060839298013     -0.05653386338063
  C   5.04506254829399     -5.68195191870037     -0.05443641700174
  C   5.04113379470634     -7.09274838474515     -0.08501875444185
  O   4.01295388377189     -7.78889913294573     -0.11092293423168
  C   6.07526555934294     -4.73740011847080     -0.01432793490490
  C   5.48624618678208     -3.45716261390910      0.00887571105144
  C   5.95510292250482     -2.16058310158645      0.05405476928867
  N   5.05430855570196     -1.09857605276002      0.06684311138650
  N   5.63205116418626      0.11486290160447      0.11264893320847
  N   4.94973388747920      1.16805704937936      0.12858210672814
  C   3.52966858549683      1.17383996002344      0.09658983160908
  N   2.89778005596316      2.29440790401240      0.12033070149754
  H   2.09899454916790     -2.74312870681710     -0.03756259221890
  H   2.94783620127811     -5.45441375361606     -0.08231068874792
  H   6.04023546747055     -7.56233602122557     -0.08439769579185
  H   7.12817805223297     -4.96827062627952     -0.00298214997843
  H   6.98716451452501     -1.85492168828891      0.08182926382492
  H   3.59080115410404      3.03918412373262      0.16081482606099
