22
Coordinates from ORCA-job 3878optt
  Br  1.14286646386441     -0.32206170602237      0.23112272757783
  C   3.03162942908960     -0.37381278804349      0.03642685960644
  C   3.80330227269547     -1.50584687636304     -0.08447724485905
  C   5.27002299819586     -1.39743268403814     -0.07481792048157
  C   5.78903525470596     -0.07656313083927      0.07953554620339
  N   7.05510982943637      0.42533368132072      0.12605262942821
  C   6.86031498832594      1.73768230358734      0.23502280405689
  N   5.57553326623073      2.18187097172368      0.26297960540518
  C   4.92042657923833      1.02982567702722      0.16443647103454
  N   3.55645781084616      0.87043331940902      0.14060348903413
  C   6.16394163158095     -2.52166661749463     -0.24003475392883
  O   7.36530327694912     -2.50098333168779     -0.07985308942184
  N   5.52915767638235     -3.80094393722833     -0.63087935141581
  N   4.90387121005268     -4.34580837466374      0.53620284925197
  C   3.74088879270083     -3.89031761551064      0.74281414230686
  C   3.11678452822733     -2.82079385791686     -0.09841030560996
  N   2.05294439996564     -3.03798778297292     -0.76798037390455
  H   7.68729324950255      2.43198084696292      0.29945104696832
  H   2.95644003616458      1.66947558270391      0.26565822682190
  H   4.79912266881328     -3.57956604188184     -1.30851194326602
  H   3.16828787260083     -4.29107548712611      1.57741972975172
  H   1.72026576443096     -3.98774215094562     -0.59176114455974
