22
Coordinates from ORCA-job 3882optt
  Br  1.11449762101438     -0.02642117388024     -0.36779029385919
  C   2.94239194769979     -0.12599332902337      0.15735019158287
  C   3.67217060206401     -1.32444866977961      0.10449183762918
  C   3.21544108097203     -2.64465034055640      0.10703930486024
  C   4.35407200337373     -3.45965781526083      0.06794244291634
  N   4.41201696032377     -4.80897351124951      0.05033197586380
  C   5.62384190398955     -5.31722586686222     -0.00469383842377
  N   6.79760410400038     -4.66296811200082     -0.05102819247962
  C   6.75413853875828     -3.33352333967668     -0.03009305423316
  C   5.54468041461500     -2.63464103363934      0.03854984693931
  C   5.11617928482986     -1.27661249567609      0.06258225289674
  C   5.79252893704917      0.00530594926536      0.01809830510277
  C   7.23177047335759      0.19810612116735      0.03280528384840
  O   8.07442973069273     -0.67408610294064      0.13555112983528
  C   4.98185843338967      1.12406244768916     -0.02494617716777
  Br  5.59163033277807      2.92825325348901     -0.05668770631810
  N   3.63868581293058      1.06063147845273      0.00353381996975
  H   2.18847725581825     -2.97140899667649      0.13061717097872
  H   5.69252105733963     -6.40219522725580     -0.01785731130293
  H   7.69816072194456     -2.80987811624594     -0.06735865685725
  H   7.55884516487149      1.24625095101373     -0.05282842365344
  H   3.11905761818731      1.92407392964668      0.03539009187182
