23
Coordinates from ORCA-job 3895optt
  Br  2.84516785132218      0.16139003439218     -3.29110249301201
  C   3.43522765615979      0.23932726514136     -1.46677418935178
  C   3.40552848429493      1.42951252493507     -0.81459802391645
  C   2.56700922932508      2.64545013383176     -1.26234752610903
  C   1.31758170068079      2.48431615250458     -0.42826411392984
  N   0.74931196089120      1.34007011424982     -0.33804894052833
  C   0.42718133920827      1.28407694322523      1.00275150026245
  N   0.46410832628823      2.45527343528630      1.59754474535578
  O   1.07777549310512      3.27495054052801      0.62150106847490
  N   0.64002417530490      0.10327546838056      1.72146160884182
  C   1.45372199361359     -0.61437929690876      1.00495453558936
  N   2.54831348980327     -1.27288319362271      1.44975966275767
  C   3.74546023517539     -1.02267670436466      0.64254925648492
  C   4.66955836402308     -0.05074625279537      1.14803086969746
  S   4.02450848057375      1.56486161411361      0.83136828839588
  C   3.59503654470184     -1.10189523897326     -0.82596358192966
  N   3.50866140900088     -2.17665039316159     -1.52491988621944
  H   2.35660309819961      2.59545535033974     -2.32705115076500
  H   3.05909633238103      3.58581343760536     -1.01853973040957
  H   1.41083896469748     -0.59558657046196     -0.07875121432362
  H   2.75375854021860     -1.11046071940513      2.43122730051833
  H   5.66289830230797     -0.13212791248459      0.70911646089436
  H   3.55262802872298     -2.97036673235557     -0.88590444677819
