22
Coordinates from ORCA-job 3900optt
  Br  1.02618772706373     -0.23267296475575     -0.53167100101999
  C   2.80972427369654     -0.07102333614686      0.13699985907583
  C   3.29586836780303      1.17771075843753      0.57294239492175
  C   3.11634455324066      2.56485285864024      0.22689290303100
  C   4.32646907322351      3.24174366805352      0.52598129076018
  N   5.23928772021641      4.11346746896443     -0.11227254061739
  C   6.54575774271304      3.55343146111497     -0.20250394720214
  O   7.45421661311713      4.09512005033251     -0.80409198644797
  C   6.46119391282275      2.25954540444473      0.54056977928722
  C   6.69049273000854      0.89241004308893      0.29516310888580
  N   5.55618348290963      0.17990063202431      0.65398448829764
  C   4.61248406024297      1.06409222385897      1.12303198611973
  C   5.18351152321491      2.30219435696568      1.13014490455083
  C   5.06131029009426     -1.07950878422257      0.25574386951552
  C   3.67073480575113     -1.15787119181372      0.03757625949230
  C   5.95927102860243     -2.12707894458786      0.00599031271334
  C   6.75152544381110     -3.01458543842020     -0.21386601486288
  H   2.23593298364490      2.96424344399897     -0.25562367844043
  H   5.01881833316342      4.91414955379068     -0.67874332184790
  H   7.52891592696839      0.36733232795097     -0.13428215413762
  H   3.28673400112295     -2.11335484427984     -0.29215644223712
  H   7.44503540656852     -3.79709874743966     -0.39981006983770
