27
Coordinates from ORCA-job 3903optt
  Br  1.00332247434733      0.13978322042939     -0.53486227442234
  C   2.90052010106148     -0.09839392205611     -0.20044528894847
  C   3.45852309585512     -1.34601225786214     -0.05292711101367
  C   2.58985516022641     -2.57274956990045      0.09502259955371
  C   3.00289995145327     -3.72393219616965     -0.79234951666772
  N   2.14810793540169     -4.90203382007498     -0.72111603205214
  C   2.82033920085867     -6.06851878333652     -0.92338036360568
  O   2.32129304809482     -7.16775399708266     -1.04302530267773
  C   4.30262541026489     -5.71724981480945     -0.97842352458355
  C   4.34211494312336     -4.32010212333256     -0.37286118971159
  O   5.41201686804706     -3.54544520562717     -0.80957534059015
  C   5.80139268455651     -2.47219582035252      0.02495536816368
  N   6.99890399951124     -2.51845316081299      0.50244365503306
  C   4.90199183072176     -1.35630812326928      0.18283871597272
  N   5.52675498984135     -0.20120382546676      0.60020435626610
  C   4.90521357838877      0.93780997247963      0.48307043819508
  C   3.60656063374607      1.09403545643498     -0.02657629213134
  H   1.55400777864629     -2.31322953663974     -0.11435218165898
  H   2.63380731724438     -2.92058304092119      1.13582750800324
  H   3.09626921996547     -3.37122076468499     -1.82671050013280
  H   1.14357847322115     -4.87321539585005     -0.79703597353530
  H   4.60789468338887     -5.67449846874469     -2.02781255438509
  H   4.90650994759808     -6.46335732575293     -0.46776022427382
  H   4.35323226074843     -4.39996632906912      0.72276622276813
  H   7.43024444535230     -3.37725354609015      0.16697630304834
  H   5.45401057692197      1.82107678448199      0.80740349636767
  H   3.15400939141318      2.06097159408015     -0.17729499298136
