23
Coordinates from ORCA-job 3904optt
  Br  3.74680401716272      0.17050510771628      3.63224751295493
  C   4.01903389763194      0.23528923255861      1.74885764046135
  C   3.21493174131397     -0.42377775072467      0.86803345358658
  C   2.08654337005416     -1.21288313413049      1.28795666909770
  C   1.30121043179510     -2.00942666581819      0.51616149856952
  N   0.23730719048574     -2.71119337055773      1.11115910158217
  C   -0.44492830045155     -3.48589216312456      0.21619957237280
  O   -1.40444858979193     -4.18531399981277      0.46235273131548
  C   0.24295875690022     -3.28336679715063     -1.11829306202866
  N   -0.13267351859111     -3.87511775637745     -2.19607828434042
  C   1.31480059325593     -2.35036459255627     -0.88415245207238
  N   2.13478486863293     -1.91375064850263     -1.84011984968760
  C   3.09917017693075     -1.01110686651677     -1.64380964767562
  C   3.55967012001808     -0.31298675963740     -0.54668368729854
  O   4.50731398098660      0.66117185089387     -0.91519951491028
  C   5.33579616347205      1.18448279628736      0.00865605055124
  C   5.15539788124908      1.01632455840567      1.31816743832406
  H   1.85195836209036     -1.17826656719534      2.34341112317900
  H   0.00002634377119     -2.65252178808430      2.08708704092994
  H   -0.93410423254536     -4.46416168124360     -1.95761163052376
  H   3.63360218822102     -0.73600678140025     -2.55142996831038
  H   6.12840600869001      1.77176204139158     -0.43355666455910
  H   5.83343854871808      1.46060173557971      2.02964492848195
