24
Coordinates from ORCA-job 3908optt
  Br  0.92273390579551     -0.03405129278583      0.19256779590910
  C   2.84075015177812      0.03282671305548      0.05653672864441
  C   3.46500646667425      1.25025459424650      0.07848068457440
  C   2.75217930206050      2.57503489758851      0.23300703605054
  C   3.54798335271835      3.63405882364075     -0.51338315528544
  N   3.28343630215689      5.02647649070081     -0.18672380457171
  C   4.45078069992606      5.73908533539458      0.00923307322697
  O   4.55282457541523      6.94017968491942      0.13925386150909
  N   5.47205327475948      4.81458107703421      0.03815727780459
  C   4.99063330505771      3.51373388595070     -0.10489996967854
  N   5.62324820689369      2.43382908842768      0.11616984657324
  C   4.90082058175455      1.25531484622477      0.03820926076154
  N   5.61560647771576      0.10569000099782      0.00953059345077
  C   4.97565796737090     -1.02954253313236     -0.02653344490483
  C   3.55599358947559     -1.19259972588826     -0.02072198534204
  C   2.99727740149152     -2.50518593599179     -0.06376930604679
  O   3.65343642112194     -3.55652305864827     -0.12203849248117
  H   2.70781700884029      2.85567542703901      1.29152002029699
  H   1.73009904080270      2.51734585156870     -0.13668415372595
  H   3.46195119365963      3.45005761092142     -1.59495168268265
  H   2.49452091945945      5.53032102206485     -0.55486131429735
  H   6.38716399935297      5.04279758731153      0.38664433956119
  H   5.56635136530624     -1.93961734148891     -0.05291159337578
  H   1.89667449041265     -2.55874304915136     -0.03983161597058
