24
Coordinates from ORCA-job 3911optt
  Br  1.26809062012889      0.43487296803146     -0.50940892481382
  C   3.14247101119244      0.03766257190343     -0.38226713707153
  C   3.59700269009618     -1.14857655356415      0.02435834704429
  C   2.74737520065581     -2.35326608088624      0.35418659199608
  C   3.46135502502822     -3.53568339432876     -0.26582948384891
  N   3.04968171030446     -4.90277824162950      0.01496316292520
  C   4.16384371951965     -5.71176992098490     -0.14206833002399
  O   4.18370131757738     -6.89946809771517     -0.30053037979193
  O   5.27862970846255     -4.93828016522755     -0.08811831642000
  C   4.86574034927582     -3.61683559609650      0.29114917911316
  C   5.69287261976015     -2.46136485303077     -0.20578664710166
  N   4.98432696797465     -1.26334646195603      0.22818675757746
  C   5.79076914869933     -0.07608327218792      0.38602545828871
  O   6.94623151433681     -0.20800833955130      0.82272739852038
  C   5.21007309503481      1.17485615988440      0.01456956697550
  O   5.66113372678699      2.29841742417994      0.12095992763809
  O   3.89989519979106      1.09585782526957     -0.64669106079235
  H   1.74323599910304     -2.22936709126920     -0.04494925320691
  H   2.67793194857625     -2.49363769450798      1.43771499807210
  H   3.52283458035293     -3.37311373361287     -1.35093293571314
  H   2.19358090710407     -5.28426200723147     -0.35541199244081
  H   4.82206789276668     -3.58206474153349      1.38428209265893
  H   5.79650976993504     -2.51575307065825     -1.29952048344173
  H   6.68164527753670     -2.42500763329672      0.24539146385688
