24
Coordinates from ORCA-job 3915optt
  Br  2.30317390490858      0.54727118611942      2.38171115636420
  C   2.98669341377924      0.57253557857964      0.58565734585821
  C   3.86284293344914      1.59452214868322      0.16395734214962
  C   3.54018973942576      3.05801999054523      0.45117649886997
  C   2.04087568059963      3.13733145712547      0.25904940313987
  N   1.20303278073980      3.40639746953543      1.24175115650812
  N   0.07114331557784      2.77870623708027      0.84954153479341
  C   0.28078460206258      2.14366768412417     -0.32516181218197
  C   -0.57815758561317      1.02827807113071     -0.85591298454895
  O   0.15889954593820     -0.07944542233386     -1.30052344619998
  C   1.00037614347446     -0.78792482529853     -0.37992498440209
  C   2.43486152609976     -0.28770518211248     -0.38424206960977
  N   3.06145561184911     -0.53473589372819     -1.49827306626871
  O   4.33853661934342      0.04166709130284     -1.58938824661001
  C   4.54796833083233      1.31457206000844     -1.05332333301844
  O   5.32057392376111      2.03874569856904     -1.65490636084392
  N   1.46894144496067      2.43788228236305     -0.76739488973830
  H   4.10681607768887      3.66755812645482     -0.25166466071077
  H   3.76587584147798      3.37795435949326      1.46999289826746
  H   -0.68314009024487      2.66108839016297      1.50320204379485
  H   -1.15781439095574      1.35259745859546     -1.72159247450054
  H   -1.28396843274545      0.73823287470770     -0.06252913844080
  H   0.97860225867334     -1.81735376116062     -0.73680866064909
  H   0.57643680491739     -0.74486307994749      0.62660674797760
