24
Coordinates from ORCA-job 3916optt
  Br  1.08656735921582     -0.32871821123088      0.39465423374066
  C   2.96231195277427     -0.26203735118418      0.18522780451922
  C   3.65009962252420     -1.40546308890105      0.09898572669749
  C   3.19983512071436     -2.85679470357099      0.13219815418380
  C   4.51480771337656     -3.55837572435664     -0.04256921624788
  N   4.94496778910192     -4.78947032738234     -0.15691793982987
  N   6.28411453741594     -4.65308203722868     -0.40658398850620
  C   7.14330502685856     -5.75510351863114     -0.10432091073873
  C   7.47280724707973     -5.85189365431303      1.37395997615455
  O   8.25330015795551     -6.64877420045771      1.82393174103219
  C   6.70874436186109     -3.32027870267524     -0.32896914803853
  C   5.54163468780094     -2.60940955351631     -0.14596320122537
  N   5.03154401662129     -1.34023364792867     -0.05864560379989
  C   5.66110391720556     -0.11163206736472     -0.08852950944626
  N   4.98921603612914      1.04070220414267     -0.02790681031915
  C   3.64738605801428      1.07808795986249      0.10190531347358
  O   2.97211371433477      2.10769785108799      0.15039028751847
  H   2.48463681119460     -3.05809568494384     -0.66731289070534
  H   2.70339311382750     -3.08405285208951      1.07786724548057
  H   8.07279831560378     -5.67879158502300     -0.67534789622986
  H   6.64256687512906     -6.67983067477891     -0.39861985286784
  H   6.90447837513713     -5.15596043722952      2.01971209553601
  H   7.72658018405584     -3.04256980988824     -0.53818703197804
  H   6.73468700606805     -0.13592018239852     -0.20795857840358
