22
Coordinates from ORCA-job 3917optt
  Br  3.12690310965374      0.19814421831239      3.63750191951543
  C   3.69585687110265      0.28839732206740      1.80729884676807
  C   3.03544351044399     -0.41803175195085      0.81578951602429
  C   1.97128939773562     -1.33273522424775      1.14647822005434
  C   1.39621564536708     -2.24833161746533      0.32964912030280
  N   0.55158116125135     -3.26807794003870      0.71414837449214
  N   0.00314447109594     -3.93378493405231     -0.36174347620802
  C   0.58224948252655     -3.40545616611690     -1.37753041825861
  N   1.47598385435656     -2.41563393942493     -1.03733394635434
  C   1.91510098865201     -1.39814727522708     -2.00702316977411
  O   1.35041404254359     -1.47875267966269     -3.08562744380945
  N   2.86929734107632     -0.55786016833690     -1.67495041450564
  C   3.49229104153749     -0.21506180170395     -0.54988239998834
  C   4.75602460941386      0.53841643401715     -0.79431234536164
  O   5.25836054048228      0.60425657306600     -1.92120588788659
  C   5.35819405778429      1.20584283244139      0.33647047132882
  C   4.83167956043382      1.09581758774455      1.58107692915359
  H   1.69566918905034     -1.41870012976251      2.18664501947412
  H   0.08666193695251     -3.31707087700909      1.60187155143767
  H   0.40935329570020     -3.67263412631781     -2.40477234301269
  H   6.24182982925925      1.79891896257633      0.14101257416408
  H   5.28245606358051      1.60448470109162      2.42343930244409
