24
Coordinates from ORCA-job 3918optt
  Br  0.96049941616157      0.10506064791334      0.08699567492862
  C   2.85554192299062     -0.01448602832485      0.00783817580684
  C   3.47178318466842     -1.29574745443468     -0.00001884050915
  C   2.64030437297086     -2.54877654624967     -0.05149896846857
  C   3.54055591014590     -3.73021608690412     -0.04152311341844
  N   3.16877545158544     -4.98442453161611     -0.04638399248997
  N   4.32930867324267     -5.70092555005482     -0.03808151643377
  C   4.27382715366505     -7.07003847330671     -0.03938356258472
  O   5.24059448889232     -7.79155119955000     -0.03190765854239
  C   5.44858350748285     -4.89301215095861     -0.02833414389850
  C   4.96432485583488     -3.62064011149397     -0.03087321185564
  O   5.64913878701897     -2.47649086187411     -0.02944463221811
  C   4.87668717297921     -1.30462379539153     -0.02098743226387
  C   5.61039885082251     -0.15667429441867     -0.02894836197931
  N   4.95591656363247      1.07695175138610      0.04473448803307
  C   3.55506749862802      1.22056828273241     -0.00559642024554
  N   2.99683613148762      2.39566277207619     -0.04843711283723
  H   2.00508097742063     -2.56825846164062     -0.94740901132561
  H   1.94430491527035     -2.59794631025493      0.79369742107891
  H   3.23198437661126     -7.41615246560268     -0.04826134710116
  H   6.43908162140152     -5.30930043687135     -0.01933973340629
  H   6.68811620795816     -0.16014618626809      0.00744981116616
  H   5.46421483667908      1.88561855577562     -0.27228831794277
  H   3.71207312244949      3.11854893533191     -0.01299819349254
