25
Coordinates from ORCA-job 3926optt
  Br  1.77397566565955     -0.38247511985598      2.49628028730723
  C   2.55550587189201      0.27598967257660      0.86984181103533
  C   3.52092844419544      1.34342182687244      0.95029891266971
  C   3.10473085777684      2.65745702895257      1.64275964745158
  C   1.73400303331945      2.89757935210233      1.04146440293985
  N   0.66370502172624      2.63597148185049      1.74830481158857
  O   -0.29726274605544      2.17218577655952      0.84959832082752
  C   0.26496485550774      2.12426663820589     -0.37195144327140
  C   -0.27073337227914      1.14106896149562     -1.35955568269408
  O   -0.29342967760486     -0.19244615466053     -0.83877245579614
  C   0.82985206943189     -0.92422680842607     -0.50794680144200
  N   0.71524326533129     -2.16383571894399     -0.32127828799435
  C   2.12812290763883     -0.19306497097590     -0.35060691281134
  N   2.75775156274209      0.07655749867282     -1.51544942203699
  C   3.91146844044145      0.78385160596139     -1.39232053227492
  C   4.29898590764313      1.43509237792223     -0.25115290598269
  C   1.47703707754670      2.70352738407819     -0.35230025380891
  H   3.83014063426187      3.43368852807999      1.39673641571790
  H   3.00250901631400      2.57655629499692      2.72497527301024
  H   -1.31110245082312      1.33053873360945     -1.62295581945229
  H   0.35534225393246      1.18507041552989     -2.25259027845999
  H   -0.25633082337683     -2.44122539965833     -0.46966620259871
  H   4.51098562150769      0.86158158262183     -2.29543076357339
  H   5.17293966022555      2.08224925731603     -0.28194161477049
  H   2.19966690304514      2.69961975511658     -1.14834050558024
