25
Coordinates from ORCA-job 3927optt
  Br  1.42503305408470     -0.62328901163702      2.19193693040767
  C   2.78368360167322     -0.33988148599348      0.84569420623273
  C   3.48444792079496     -1.45874971765985      0.30800008111589
  C   2.70182598043394     -2.65427424226784     -0.23342362747619
  C   1.45678479840458     -2.04769026261138     -0.83498650567415
  N   0.25032880454583     -2.33488174440085     -0.44114350942878
  O   -0.49947366765785     -1.18590616646487     -0.77699136128918
  C   0.38934462049094     -0.34707544969206     -1.30310477388579
  O   0.02757983767934      0.91916354366576     -1.42040896714205
  C   1.13064889782596      1.85784608987436     -1.29702255568135
  C   1.80828347399768      1.93816841359987      0.09156676684938
  C   2.95147273077456      0.97101956469852      0.31895318442599
  C   4.15630985784133      1.19702910729484     -0.26365865398327
  N   5.11707555609007      0.18886573949802     -0.26709051356339
  C   4.71845378287621     -1.17974196163444     -0.32792357377375
  O   5.46101568404349     -1.96289402649710     -0.93832311612646
  N   1.55201821152981     -0.84187665023389     -1.50251652755907
  H   2.38715967541216     -3.38253220495140      0.51651814584101
  H   3.33271460901107     -3.15053837620701     -0.97186682097277
  H   0.65207795409987      2.80988550072238     -1.52172527597157
  H   1.87074660160004      1.62631113586434     -2.06273222157357
  H   1.04272082094923      1.83306591089510      0.86289399378434
  H   2.18666802904666      2.96386808119510      0.15925673651579
  H   4.38718429613890      2.10239841915576     -0.81421273319832
  H   5.95089486831327      0.34270979378711     -0.81168930787312
