20
Coordinates from ORCA-job 3928optt
  Br  1.27774716366732      0.06448304949834      0.02627855001092
  C   3.19752145653418      0.01447598546990      0.02597348476251
  C   3.81093791272854     -1.19992848082459      0.02851568534536
  C   3.21043504678569     -2.59538049439080      0.03165316215447
  C   4.45335453271999     -3.43498128291496      0.03364725569093
  N   4.75059447616918     -4.68039246433904      0.03635396715558
  O   6.13657178988287     -4.71683488594569      0.03690169317117
  N   6.69458018243431     -3.42554820913007      0.03393487267223
  C   5.63781397624559     -2.63212829475646      0.03202801824832
  C   5.25509933449002     -1.27345157074975      0.02869801726053
  C   5.88662222061736     -0.01645317820413      0.02572053955901
  O   7.25233201163566      0.17040745133237      0.02492484216439
  C   7.60608003229751      1.48178139972193      0.02125039892219
  N   8.79364221952152      1.90377716456821      0.01932106483552
  S   6.19108691770104      2.53703087094010      0.01933669452634
  C   5.13201448692656      1.12689304922237      0.02316097551337
  N   3.79687496886335      1.21834390234482      0.02327186386592
  H   2.58841100674161     -2.77280344320358     -0.84753566216547
  H   2.58838224180606     -2.76875115300461      0.91162904305070
  H   9.43989802223158      1.11646058436567      0.02093553325600
