23
Coordinates from ORCA-job 3929optt
  Br  1.17545819155682     -0.51217889130002     -1.72629065585096
  C   2.36641607794490      0.29934103805387     -0.48700668474502
  C   3.31218474134243      1.27925666294332     -0.90734133124178
  C   2.89215138080362      2.39174002878398     -1.86973799469759
  C   1.54171271266892      2.84912591910386     -1.32899873405472
  N   0.45734047565111      2.78840032919839     -2.06260190465741
  S   -0.86379638099271      2.54167539362983     -1.08941964748262
  C   0.07039627894484      2.45239146168405      0.36829677432786
  C   1.33493012676004      2.83676857034235      0.08681181359843
  N   -0.44076049662644      1.87661527663703      1.53142823630486
  C   -0.05357566387638      0.72600879650295      1.89630064469429
  O   0.82635219483330     -0.16385052649906      1.37702740755119
  C   2.08710999163295      0.21633014282839      0.88639439166805
  N   2.92895656497701      0.56433784039328      1.80201463922913
  N   4.18523631198399      0.87426720890329      1.27621117497078
  C   4.28663267390482      1.63155191759159      0.07958008116114
  N   5.18613157605432      2.55388027233223     -0.07866120715980
  H   2.74145914879824      2.05828384049197     -2.89678361816798
  H   3.66277047509377      3.16053271634485     -1.84185556778165
  H   2.12888918484072      2.83411289200539      0.81700580184922
  H   -0.54513611269773      0.27951237515941      2.75666840369044
  H   4.76603356995346      1.24237874188191      2.01418919738818
  H   5.72010697644798      2.68451799298712      0.77776877940601
