21
Coordinates from ORCA-job 3932optt
  Br  0.96982346625991     -0.17818803495910     -0.40311035304016
  C   2.83721068180873      0.12815538155091     -0.19609186429935
  C   3.37763854735678      1.22968178066689      0.37395211228416
  C   2.51553807864761      2.35601882918918      0.88084567944435
  C   2.83797744650007      3.58620391523448      0.10828453106448
  N   2.06360941795862      4.24348031029054     -0.70633999964012
  S   2.94633023665291      5.49544594176652     -1.30101190051287
  N   4.34793742431093      5.20438514372680     -0.51227432275628
  C   4.15426907183989      4.13828001280888      0.21017608371569
  O   5.05855946575830      3.66641274770782      1.07548323296170
  C   5.61317087627760      2.34481208116568      0.98159272631471
  N   6.80747927529539      2.24164351226887      1.40563962080229
  C   4.82692489495164      1.24289088666912      0.44956413008387
  N   5.57517385069186      0.15751294872023      0.11456340282600
  C   5.01887745407974     -0.93174459810360     -0.41464591883547
  O   5.57828902056546     -1.98003667826054     -0.71855262348719
  N   3.61238252036443     -0.88257150313989     -0.68513634037759
  H   2.74238178229606      2.54927706573512      1.93424053911547
  H   1.45996086469822      2.12137379067906      0.79009273099954
  H   7.15144028034505      3.16736590380420      1.65153198489981
  H   3.20102534334071     -1.75139943752122     -0.98180345156304
