23
Coordinates from ORCA-job 3934optt
  Br  1.16800686744182      0.40931703291835     -0.20261137105996
  C   3.05551054129266      0.17053219686309     -0.10943555221658
  C   3.56585009506363     -1.08966282189644     -0.01510331867547
  C   3.01864872773157     -2.47307423833944      0.03890919264542
  C   4.30151129893744     -3.35005914165459      0.01660344644316
  O   5.42746091192867     -2.38414521806814      0.14627720451681
  C   4.96620546066043     -1.15357046270079      0.04595598816426
  N   5.76128846571146     -0.09980834810914      0.02885745380961
  C   5.11614880827385      1.06305492601239     -0.06358520203177
  N   3.80821737082194      1.26620044904495     -0.13553659799431
  C   4.44398636340891     -4.34614520401433      1.16101511177367
  N   4.51760732682223     -4.12402063056338      2.41213161304164
  N   4.49588040720867     -5.58253088960197      0.59432204874539
  C   4.55226221435380     -5.56207651291450     -0.83842694294552
  N   4.65427742254777     -6.61756993947406     -1.57260636073562
  C   4.42239770704495     -4.18144317640356     -1.23521568789640
  O   4.29601699121509     -3.68158619499938     -2.37943698731914
  H   2.41458186997420     -2.70194748034193     -0.83947125806656
  H   2.42651957131663     -2.64212845372096      0.94064639367735
  H   5.73552885662212      1.95350734703762     -0.07920568334111
  H   4.47686037477383     -3.12204169884604      2.58640821921083
  H   4.77589842687946     -6.38354002609918      1.13668734469666
  H   4.67633391996880     -7.45226151412852     -0.98917905444236
