21
Coordinates from ORCA-job 3936optt
  Br  0.89170670242188     -0.77861783639863     -0.10866377345900
  C   2.72424364612900     -0.32198973533057     -0.35611945464382
  C   3.17604326580798      0.97424070705512     -0.09097561575308
  C   2.31587255558674      2.20865127973677      0.04224595712178
  C   3.31670588057264      3.31401839077343      0.30267467280268
  O   4.26203973015039      3.56586498136328     -0.72167559021423
  C   4.68961938429369      2.73015321986377      0.34868622622812
  C   4.53015468047364      1.27873683106564      0.10904008353933
  N   5.58173443640062      0.48045366922056      0.06203705964504
  N   5.23263113592460     -0.79790141340269     -0.37194055528834
  S   3.83243976367290     -1.55143000798218      0.15437297737747
  O   3.74457536685628     -2.76831211042940     -0.60977791817053
  O   3.82681724698047     -1.69077891787227      1.59115199613021
  C   2.98370405724790      4.48342881295164      1.13343637466758
  O   1.99041531548402      4.62210607082072      1.79313673527979
  C   4.02477441273346      5.55416192914383      1.14679241252449
  N   4.80164407885970      6.39383522361431      1.21371987587930
  H   1.62119538885653      2.13363271793942      0.88281864583742
  H   1.72501011179270      2.41820719710951     -0.85358805821965
  H   5.49858617050703      3.13225779183431      0.94681401364949
  H   6.00608666924776     -1.44571880107661     -0.28118606493407
