25
Coordinates from ORCA-job 3937optt
  Br  10.04948836275822      1.33701846533733     -4.46977230525428
  C   8.55021351650931      0.36830851072367     -3.81612774076422
  C   8.59256088736105     -0.19247115606519     -2.51823444975081
  C   9.52457348948471      0.17329724880370     -1.41673419920223
  C   10.53255424111366     -0.90310954981599     -1.00045245242603
  O   11.13967093162252     -1.69838623282134     -1.99407254728560
  C   10.28166169023602     -2.35844515679668     -1.08289683618612
  C   8.97356151173943     -2.93224555154757     -1.58805709932417
  C   7.73950658338848     -2.10004076962139     -1.22650187220061
  N   7.50764732339680     -1.03013088695283     -2.18088365781812
  C   6.36172937279131     -1.00281902640510     -2.88743382356455
  N   5.99755784355737     -0.17406731888986     -3.80924758655719
  S   7.02411027996795      0.98434910858439     -4.37356413415727
  O   6.64433103383162      2.23706660783029     -3.75014039150107
  O   6.96503729426101      0.96431408128502     -5.81223325254035
  C   11.45429822958598     -0.46743693713305      0.04751870064169
  N   12.15223934985029     -0.10688798961403      0.88310277788907
  H   8.99638183540280      0.46869229153368     -0.49680613205150
  H   10.10263230902228      1.04338569515295     -1.72948936005840
  H   10.82412812633035     -2.97557445912876     -0.37087351250805
  H   8.86016692881654     -3.93070863551082     -1.16090128176992
  H   9.02724796359342     -3.03368095619814     -2.67358177342967
  H   7.86206035192615     -1.68349742080170     -0.22119070438171
  H   6.84926760170868     -2.72892702646818     -1.20668900533648
  H   5.66037294174368     -1.79300293548038     -2.62273736046235
