21
Coordinates from ORCA-job 3938optt
  Br  1.24244114299824     -0.36320438008043      0.15700536003175
  C   3.13458378666018     -0.18452020035399      0.03236640116084
  C   3.73565103231933      1.03564892868780     -0.12490236065592
  C   2.88403036244335      2.27774243301898     -0.23530186191327
  C   3.62614985495549      3.58078467573665     -0.19996026463896
  O   4.39365424549229      3.83873704989270      0.95770396586474
  C   5.08603993860969      3.60021975466195     -0.27731535829890
  C   5.87648374580399      2.33050775553966     -0.40069033998844
  O   7.09107452073224      2.43645254551670     -0.62244611623219
  C   5.17025584899985      1.08690494655828     -0.25115525815782
  N   5.93026341593950     -0.05555148394570     -0.24411844922071
  C   5.29329547782135     -1.18061564953755     -0.09548600781014
  C   3.90267293353125     -1.37608371572772      0.06182586931490
  N   3.47926230363847     -2.65803744361480      0.20049442489344
  C   4.47977298388411     -3.48432667710146      0.15642270333664
  S   6.05253993754324     -2.76440214384064     -0.05971687124523
  H   2.13818346803035      2.27926691240488      0.56384761301374
  H   2.31553533724938      2.22989415416232     -1.17063613706550
  H   3.06895821891609      4.44296710255957     -0.55974440530951
  H   5.60167823249904      4.47153505399033     -0.66713539466566
  H   4.37047321193250     -4.55491961852755      0.24594248758619
