28
Coordinates from ORCA-job 3949optt
  Br  1.23021318542349      0.44065468123591      1.41602709292192
  C   3.14959855268856      0.03196560948508      0.06026381151190
  C   3.30741402724925     -1.28404276906920     -0.28575622178136
  C   2.13018222194522     -2.13603129718297     -0.69268432461106
  C   2.55823380049393     -3.53909622782855     -1.09439133336973
  O   3.23516680654678     -3.55818928128312     -2.35721709445378
  C   4.62972791227740     -3.35632953897943     -2.13824235308510
  C   4.80884161406003     -3.25518938760491     -0.61346391733532
  C   3.61064922725883     -4.08184376911164     -0.12506838026211
  C   3.78125237266467     -5.59127818088137     -0.32350414761075
  C   4.94249877556967     -6.14441214106351      0.37116268032754
  N   5.85456555819283     -6.57787999304008      0.91403464428803
  C   4.61341715529426     -1.82734817648541     -0.16589129395604
  C   5.65084407035036     -1.08307522075159      0.30743305507644
  C   5.45463291769812      0.29537015412786      0.67162466925903
  N   6.29294147232570      1.14527746443500      1.12314310291882
  O   4.17165471520003      0.77725618902538      0.47627992396030
  H   1.58453032499828     -1.68503939639293     -1.52394719444553
  H   1.42476354781613     -2.19929434078523      0.14331804291216
  H   1.69081319896048     -4.19541406725006     -1.19593714883834
  H   4.95698466968043     -2.44404964527027     -2.63917818380402
  H   5.17905622740416     -4.20636386916318     -2.55672468124403
  H   5.77292682877359     -3.64277151059374     -0.28219291610485
  H   3.36880620096145     -3.85673627568367      0.91382988564189
  H   3.88485907567933     -5.81381424995872     -1.38805062319234
  H   2.89330230806154     -6.11723951697924      0.03274427027163
  H   6.64354831879961     -1.50007078032236      0.41683961105056
  H   7.19757491362575      0.69198553737205      1.21454902395418
