25
Coordinates from ORCA-job 3952optt
  Br  1.12162975692944      0.20224490978595      0.05706802067192
  C   2.99752464931911      0.01935396156501     -0.07689982868861
  C   3.59008994871604     -1.25453900002227     -0.12966651306348
  C   2.77194113243268     -2.51931184931899     -0.26139170629514
  C   3.73018593102523     -3.62752345142634     -0.59610857450479
  O   3.25824232283988     -4.94539929112223     -0.41415590295217
  C   4.39629857957299     -5.79487105519786     -0.24062337834040
  C   5.62635773394760     -4.88576112789966     -0.03983658208062
  C   4.96844374326925     -3.54937637721604      0.29677407690063
  O   5.73728540032205     -2.43747649145514     -0.02039378270343
  C   4.99288331319819     -1.25040586226451     -0.04972257767429
  N   5.78521246847556     -0.21752066923718      0.01006687680015
  O   5.14634036426822      1.02654652527268     -0.15799132262844
  C   3.77593301119482      1.20405476646467     -0.05348433198213
  N   3.33338282994245      2.40677343291914      0.00737971069809
  C   4.58243131155582     -3.56106335479510      1.73355458913548
  N   4.32052088580499     -3.66502384835369      2.84475942811576
  H   2.01530329664839     -2.40341586622633     -1.03985487699361
  H   2.24112312539258     -2.75388818984182      0.66827271119858
  H   4.10818164211672     -3.49014039188048     -1.61914571173241
  H   4.51420306230024     -6.43864565629583     -1.11554109576547
  H   4.20839219840642     -6.42087215990417      0.63246927942097
  H   6.18394359536027     -4.74311271502979     -0.96491743395183
  H   6.30047539615059     -5.24561546724035      0.73378864131565
  H   4.12767430081038      3.04298922872040      0.00760028509958
