26
Coordinates from ORCA-job 3956optt
  Br  1.24545558283343      0.52842587935684      1.00412777346582
  C   3.07905289820991      0.24511892117835      0.52592261631471
  C   3.57958409702892     -1.03935433106111      0.39948505674352
  C   2.76872870623576     -2.26889369217876      0.14028963123910
  C   3.44215785939005     -3.59695536656012      0.48204308643163
  O   4.39487879041553     -4.00238276679427     -0.47472015724687
  C   5.68630120015129     -3.43273966069523     -0.32277372538752
  C   5.68305980972981     -2.24467591688554      0.63571587862030
  C   5.11406940255690     -2.78147870416313      1.96399276714207
  O   3.99000051027660     -3.62349431162372      1.78405008407606
  C   4.83129294771417     -1.72511932207430      2.95560656446572
  N   4.70389412982568     -0.97324998208456      3.81167972932768
  N   4.96624025837718     -1.10159441995785      0.12592363319476
  C   5.70759411035454      0.04305506215930     -0.32483781788132
  N   6.89904174744557     -0.09085404731707     -0.82348958920226
  N   5.13704921060677      1.25709356642206     -0.18387322441986
  C   3.88740322466585      1.34304279774405      0.30265587376490
  H   2.48061773940820     -2.35102330110522     -0.91982027528809
  H   1.84715760234789     -2.21228714207130      0.72077005545505
  H   2.69146605366617     -4.38633434898997      0.48267734970254
  H   6.02907061461272     -3.10760378026995     -1.30561492972241
  H   6.36840319512839     -4.20386967320650      0.05639429596526
  H   6.71620607761714     -1.94188686830336      0.82006048165503
  H   5.89717960926603     -3.40454709045371      2.40837318232064
  H   7.13003466438577     -1.06953649084261     -0.95465811274832
  H   3.50205995774960      2.33914498977772      0.49201977201185
