25
Coordinates from ORCA-job 3960optt
  Br  9.32397615825259     -3.94700186825997      5.26691186103104
  C   8.02131258077655     -4.86450982152913      4.17307399654819
  C   7.76096579838666     -4.40737003521616      2.91531729842635
  C   8.43404232467321     -3.17555143023897      2.29023061863601
  C   8.02152135546977     -3.35657074035280      0.85796320558857
  O   6.62090624311658     -3.29737769545718      0.82724850035951
  C   6.24255435376486     -4.65752540011041      0.87989417231962
  C   6.69098133361850     -5.23228285422753     -0.52739735738887
  N   7.33998091756403     -4.31530569758112     -1.48313902762093
  C   8.02450096866665     -3.26456693031144     -1.35737783114558
  O   8.46017820492890     -2.58626170903676     -0.23768769453230
  C   8.50980625011614     -2.59503268642605     -2.54939858456940
  C   8.91820129952907     -2.03959406553204     -3.52810563049814
  C   6.85709644970333     -5.21087835960030      2.14451052344949
  N   6.32033073259946     -6.37216381386054      2.67766610125281
  C   6.68373636513885     -6.66332377401730      3.90098921580509
  N   7.49474282718187     -5.98859079028710      4.73468915405051
  H   9.51540064494841     -3.22252916865367      2.42687740956020
  H   8.05652294383521     -2.24570709926581      2.71805876518941
  H   8.36939992202300     -4.36218140408840      0.62354628538609
  H   5.15168130472486     -4.71128727230439      0.94154349936280
  H   5.81426642680667     -5.61111545183710     -1.05311550795216
  H   7.35901240983179     -6.08624212449982     -0.39248601273675
  H   9.27925788189032     -1.55315622524755     -4.40145104757285
  H   6.26862430245262     -7.58087358205839      4.31663808705126
