26
Coordinates from ORCA-job 3961optt
  Br  0.51575983437370     -0.20441126538335     -1.10399468983613
  C   2.74387404298268     -0.19658587287357      0.19292167462201
  C   3.42570963127846     -1.38964727381299      0.17211916371628
  C   2.71750242675481     -2.72125216306150      0.09991213135626
  C   3.71190402763676     -3.86218673345886     -0.02928514427384
  O   4.29450102864830     -3.88506711938993     -1.33120530765517
  C   5.57104393332621     -3.26991461892351     -1.23870192707379
  C   5.56344243091104     -2.68661042163484      0.17876512396452
  O   4.79948847360220     -3.68534715290162      0.85340293383949
  C   4.83412618086764     -1.37195716728796      0.23371177756091
  C   5.47806614269599     -0.15827368893565      0.30535688885289
  N   4.82627750422681      1.01192777643979      0.31593419513602
  C   3.50928608837278      0.96485674145309      0.25512953477070
  O   2.83554021857409      2.16023049000671      0.26143185094650
  C   3.61164819334087      3.31757559854749      0.21172946309690
  C   4.21004972970681      3.68399619436821      1.51406922008421
  N   4.64683389465885      4.04371135416337      2.51069966767648
  H   2.02842474611286     -2.71728934587589     -0.74657501734583
  H   2.11380476231637     -2.85894080477100      1.00045457970044
  H   3.26490573763150     -4.83656242275676      0.16796761196214
  H   5.67022284007765     -2.50423024025779     -2.00792167378097
  H   6.35450172591706     -4.02522242322987     -1.35519035007523
  H   6.55219579326311     -2.63522732609277      0.63312106304289
  H   6.56153628676230     -0.10552535230438      0.36636760323492
  H   2.93816138471287      4.12427570321864     -0.07635225257530
  H   4.42219294124795      3.23367753475500     -0.51386812094729
