25
Coordinates from ORCA-job 3967optt
  Br  1.24791328813586      0.08601133591044      0.35883581665976
  C   3.16129857269834      0.07675090108446      0.18808153191545
  C   3.80270254051011      1.19928848430368     -0.24065911741555
  C   3.26810383207836      2.56382512964057     -0.57201812506344
  C   4.52192542743212      3.44274638853572     -0.65785779012318
  O   4.66225437553718      4.25760082207120      0.52876934389694
  C   5.84135399095792      3.89690639816947      1.09344738357590
  N   6.54718688826943      3.00449015418043      0.56316025717494
  C   5.77353221998877      2.51476497912217     -0.61433267268711
  C   5.19272385382452      1.15689361875553     -0.42960956383633
  C   5.83310430122270     -0.09433504328351     -0.19924126217997
  Br  7.66289344361579     -0.29670306082802     -0.72843481244213
  C   5.07488358771493     -1.18380972220183      0.20576164189599
  N   5.69111316412704     -2.42299541221210      0.39257047930692
  C   5.15216501100194     -3.60829948143953      0.84810432175233
  N   3.96933674979596     -3.90975957132013      1.18357661769305
  N   3.75679712700783     -1.12098636623710      0.44957944457503
  H   2.57469101794140      2.94816424000758      0.17742967316145
  H   2.73849556979952      2.54720385125430     -1.52846076157602
  H   4.50729091097651      4.12557569314099     -1.50792297738979
  H   6.07669966934800      4.43171253696769      2.00685555454110
  H   6.42807229307784      2.60422332110753     -1.48685295128417
  H   6.68097564982459     -2.43367358260867      0.21281691831378
  H   5.92666023130600     -4.37691775953383      0.90876797226177
  H   3.36782628380722     -3.09167785458705      1.07463307727328
