25
Coordinates from ORCA-job 3969optt
  Br  1.61325404557476      0.87667729814063     -1.72480962151748
  C   3.29460033136976      0.50124178945661     -0.93482052715335
  C   3.85492113603730     -0.73364685205035     -0.93311696456314
  C   3.36791831860025     -2.02225469362761     -1.52567624685553
  C   4.34041537454062     -3.05437166319345     -0.95713474389738
  O   3.81315930727214     -3.62330053058723      0.25143718360643
  C   4.71052188748985     -3.59091068466420      1.26705003233609
  N   4.48369154458655     -4.04022884904751      2.42210993313664
  C   6.00730907720839     -2.98970467806242      0.79659381149425
  C   5.62531627183471     -2.29088109171354     -0.51784156242908
  C   6.68309549578461     -2.37381778406274     -1.53090648763593
  C   7.53187201454140     -2.41977919112529     -2.37865084787242
  C   5.11302942926832     -0.88177000656124     -0.34089513025225
  C   5.78540002383035      0.22175995139534      0.21496460984498
  C   5.18647533939979      1.49413135675387      0.22590371176391
  O   5.59997910188832      2.54997500691002      0.66237013729509
  O   3.86994182732517      1.58677795767030     -0.36316143968900
  H   3.42448315353540     -2.00925541111476     -2.61847693482968
  H   2.34134976434775     -2.27139361682077     -1.25058992358012
  H   4.55363198791242     -3.87521053939620     -1.64419715843714
  H   3.53633187883697     -4.41312939243500      2.46988110832579
  H   6.72774954458226     -3.79478889295765      0.63335383444437
  H   6.41014290776745     -2.29982437918522      1.53408403660303
  H   8.28250559895552     -2.42913336711824     -3.13059609161624
  H   6.77190463750986      0.15083826339668      0.65012528147817
