23
Coordinates from ORCA-job 3975optt
  Br  1.10409467831621      0.08587739965019      0.60695063415473
  C   2.87200478495910     -0.05450695932847     -0.27894905518220
  C   3.62312638371884     -1.24098698098470     -0.16208782139662
  C   3.17407424191702     -2.59144588743705     -0.15522094157046
  C   4.31659278100590     -3.35441896420131     -0.11687315082552
  O   4.39323063761882     -4.70639971369277     -0.10250005627723
  C   5.64141754440870     -5.32222058689809     -0.07911020444481
  N   5.67087201000422     -6.59599518065525     -0.08479317328595
  N   6.78772002590309     -4.56457960965387     -0.04966972625920
  C   6.70956610570583     -3.26065301250890     -0.05615245942505
  C   5.48900085225722     -2.55523086310784     -0.09342312055765
  C   5.05357794647591     -1.20517129380371     -0.11233539540088
  C   5.71577538138295      0.07334343344297     -0.08247436846623
  C   7.13817069073758      0.32831826889238     -0.00447105862244
  O   8.03086843537930     -0.49287874133139      0.06739735461529
  C   4.92757920003420      1.19805897293387     -0.11409078289366
  N   3.58700873543453      1.13498136088334     -0.18127786620937
  H   2.15122493641614     -2.92919248530905     -0.17799960365929
  H   4.71496726289119     -6.94265116396596     -0.10855807840363
  H   7.64533315564057     -2.71470589078155     -0.03052424234670
  H   7.39265351761605      1.40984811434121     -0.01069633664286
  H   5.35718678641419      2.19166006189585     -0.10275409491054
  H   3.06095390576211      1.99094972162023     -0.25538645198970
