20
Coordinates from ORCA-job 3988optt
  Br  1.49862171852865      0.06723883007949     -0.13337474968093
  C   3.36400098166981     -0.32281635115039     -0.06058115772806
  C   3.75301672847236     -1.63669240414356      0.10932038025749
  C   3.05363467177085     -2.85589926477269      0.23585487255627
  C   4.00064177101012     -3.83639279983477      0.37360590962082
  O   3.77790653414976     -5.15563427961241      0.62667162014142
  N   4.32870536351478     -5.99489459120185     -0.39370501677757
  C   5.59159791099547     -5.95495861190523     -0.43771900593051
  C   6.58209863747825     -5.19009498202798      0.42650488790854
  O   7.49997583849344     -5.86536961784518      0.86690882033329
  N   6.48077280609886     -3.85073784456135      0.54281264184404
  C   5.31603157390008     -3.27430887169231      0.34628043754849
  N   5.12648448852453     -1.90684061627813      0.16442026367192
  C   6.09689537674779     -0.88443318872894      0.00626875009129
  O   7.29152412359651     -1.10532103882046     -0.00452432502759
  C   5.50104982976490      0.42538240695391     -0.14584332604518
  N   4.20782260788564      0.68202864862144     -0.17940650214736
  H   1.98282073076106     -2.96521853807700      0.23993251596325
  H   6.03407887184908     -6.62003491593936     -1.17445737889676
  H   6.19531943478799      1.24899803093677     -0.25096963770286
