20
Coordinates from ORCA-job 3991optt
  Br  1.04213491242145      0.45336487952983     -0.01716741272438
  C   2.91932533611587      0.15811328838260     -0.01033719243388
  C   3.44643102489236     -1.11815190013908     -0.00843719853837
  C   2.91706935477713     -2.45937096006050     -0.01007050263968
  C   3.99636191935825     -3.30852480943120     -0.00688707136041
  S   4.05188664699175     -5.05509399679519     -0.00690823392086
  C   5.82190422032532     -5.23444221385501     -0.00458939919708
  N   6.75499297042380     -4.34100238248510     -0.00133195495164
  N   6.46363026943372     -3.05795225258940     -0.00005167051831
  C   5.19998892053258     -2.53835976391709     -0.00326203889781
  C   4.86597040655208     -1.19505062294288     -0.00422087163478
  C   5.73500209860486     -0.04561031818326     -0.00217066339540
  O   6.97053752237916     -0.18210179521179      0.00071245212834
  N   5.12114681846691      1.19040974612402     -0.00379049770530
  C   3.80264267559439      1.25267610517014     -0.00761904259200
  C   6.24573669830005     -6.60012145289552     -0.00629796058379
  N   6.52381721914403     -7.71576452754153     -0.00823743089988
  H   1.87313773013150     -2.73029771286599     -0.01306109403949
  H   7.22933301772426     -2.39109328989383      0.00166129366401
  H   3.36695023783050      2.24937397960081     -0.00893350975927
