20
Coordinates from ORCA-job 3993optt
  Br  1.54321911962097      0.14294444919914     -0.23766404190216
  C   3.33487657478559     -0.41630320497944     -0.09415370096225
  C   3.67184553052674     -1.73752539976714     -0.06272649320960
  C   2.99299304919395     -2.96024919669738     -0.10503844828347
  C   3.92644869174656     -4.00262248628325      0.02955631793710
  S   3.35543193623423     -5.65590349120970      0.13759102759485
  N   5.01743115176304     -6.19899847235368      0.51066457604250
  N   5.71188949740505     -6.03918353971825     -0.49163146360417
  C   6.95955984311780     -5.40749806679593     -0.08422864443419
  N   8.13702367797729     -5.90758725517322     -0.10166770600301
  C   6.57276808920031     -4.04884383047001      0.14662940193134
  C   5.27740641262313     -3.50849750159429      0.12308570726938
  C   5.09613021493557     -2.04546030728258      0.08760969893268
  N   6.03142734261957     -1.17873424328526      0.17372734825466
  O   5.65387053992832      0.13870541814645      0.11522583374960
  C   4.34625785598981      0.59458928029932     -0.00913455511685
  O   4.20046898355008      1.79309421073971     -0.03301795441156
  H   1.92370077479098     -3.08067295949117     -0.17704992104338
  H   8.09478639249024     -6.88519475400212     -0.38117260987313
  H   7.38346432150073     -3.33005864928117      0.16539562713164
