21
Coordinates from ORCA-job 3995optt
  Br  1.69082004320762      0.43694267584555      1.61920968788643
  C   3.20221366047621      0.42666984981070      0.46728423913502
  C   4.09290929757720      1.43817572477253      0.34677004393888
  C   5.25446606078363      1.23833096823473     -0.49633792696839
  C   5.53324750688894     -0.09521632706398     -0.90685749375765
  Br  7.27455148415159     -0.64685610659461     -1.43490059962036
  C   4.62400752549178     -1.16698038788481     -0.73696295685382
  O   4.75712386264430     -2.35689709846938     -1.00078513278339
  N   3.37406057811318     -0.76125186404019     -0.18685374674478
  C   5.95128108671670      2.37560580139023     -1.06378562910411
  N   6.57510972035324      2.42989986259706     -2.18515015431416
  N   5.99235385813753      3.62491940001765     -0.36982464308053
  C   5.95293961453383      3.90210314419381      0.96833788765955
  O   6.57138247478824      4.78813807550042      1.49105570646657
  O   5.12295139837494      3.11208744234815      1.69515200100002
  C   3.94508720551854      2.70824430009950      1.07260822686160
  N   2.94087903376128      3.44389805338325      1.22898282730979
  H   2.74564573275597     -1.52746489717756     -0.00479883829788
  H   6.48988388759403      1.54958221789631     -2.68130346196786
  H   6.57164528084655      4.27623369017161     -0.88159245865610
  H   2.14344068728463      3.04983547496899      0.73575242189117
