26
Coordinates from ORCA-job 3997optt
  Br  2.22403551279706     -0.33481916387502      2.49532083285249
  C   3.06862272183588     -0.13025027838859      0.78185198773349
  C   3.26637667472295      1.18616357736083      0.26722721903809
  C   2.66660501559200      2.33735197332897      0.86420821018614
  C   2.83010939461064      3.62023884745347      0.43727669189132
  C   3.79240487883858      3.92951356855469     -0.62895380167761
  C   5.24976637414603      3.58065536625887     -0.41211736971419
  C   4.41652886261016      2.74663888853084     -1.34404100037214
  N   4.54465166749593      3.07613610664949     -2.75706100773168
  C   3.60491201063425      4.17835733627679     -2.99938809514816
  C   3.52146580737184      4.98854789851166     -1.69263210975581
  C   4.02894507426062      1.36126108218406     -0.94945781292615
  C   4.42609517442241      0.34573095183144     -1.74419074245370
  S   4.13564439939665     -1.33514236041671     -1.44774371439845
  C   3.40067534783179     -1.37145502960609      0.21861290454811
  O   3.24302339417478     -2.50284019460972      0.66996785133648
  H   2.00414126568164      2.16310348891856      1.70068217739557
  H   2.29427353480900      4.43302829190307      0.91240232740437
  H   5.50291256303628      3.14578508973824      0.54625785658486
  H   5.99797986125232      4.22544497243654     -0.86095836784505
  H   5.49096060582823      3.37879873084231     -2.95528732947345
  H   2.62402345258950      3.74657573756074     -3.21351516319449
  H   3.91374353289359      4.76258025315772     -3.86850603569822
  H   2.53921507999643      5.44293023482764     -1.55361572017060
  H   4.27203218587617      5.78381242568799     -1.67117640096761
  H   4.96785560729521      0.55485220488216     -2.65716338744361
