29
Coordinates from ORCA-job 4000optt
  Br  1.20932691447905     -0.34065712358437      0.35408216748610
  C   3.06770467316283     -0.01547272430050      0.19895982899752
  C   3.53342656440447      1.23879418350686      0.32411217784584
  C   2.90015738594669      2.60434496072882      0.43181349107157
  C   3.96427133297473      3.51122372399974     -0.24733386109613
  C   5.30007774214482      2.81603360673809      0.10220067981474
  C   5.90074700485473      3.34238175589227      1.42623819901005
  C   6.91005526439214      4.45310938371984      1.15112794648569
  C   7.96912612878814      3.94048818016084      0.18402491706598
  O   7.37910996039674      3.56959877418127     -1.05241338923431
  C   6.40617848869610      2.59294720885213     -0.92388658557120
  N   6.75128289177847      1.26623297042760     -0.99115064270838
  C   5.73458758622246      0.57625230454439     -0.45166758746411
  C   5.31043731097372     -0.73888040235565     -0.53683836281934
  C   3.98267212397824     -1.13725095837911     -0.12792073376752
  N   3.50592276474061     -2.34540882975192     -0.11943103730606
  N   4.87387108677711      1.43980069442057      0.23030338850106
  H   2.75798523565775      2.87681989075204      1.48177121956728
  H   1.92538011846539      2.63396953837572     -0.05180860787319
  H   3.91660558176511      4.54625811857816      0.09425428090452
  H   3.82823598930549      3.49053177710646     -1.32940451626789
  H   6.41658911331892      2.50441318565361      1.90251821104596
  H   5.10919678239179      3.67275085842475      2.10712376162941
  H   7.38086460406215      4.78615657237145      2.07998403574419
  H   6.41528228243844      5.32035829582240      0.70157677159170
  H   8.48311857851994      3.07248647884822      0.61789365388923
  H   8.70943061244723      4.71015089591519     -0.04200819046662
  H   5.93245026097974     -1.46733674704674     -1.03868912675119
  H   4.24590561593685     -2.99109657360219     -0.38943208932491
