25
Coordinates from ORCA-job 4003optt
  Br  1.45642504322941     -0.85528299724485      0.24936199624032
  C   2.98601204771822      0.27761486108229      0.43793961498309
  C   3.06656592944798      1.49320130280375     -0.30302773149157
  C   2.06264249503912      2.04476445608182     -1.11849209743276
  C   2.18916989446397      3.24849491811833     -1.78468619783543
  C   3.47750719707642      3.93152359765050     -1.71811305061957
  N   4.69039809706292      3.32469251643503     -2.29771020691047
  C   4.56843984629376      3.42350711328752     -0.83837489929050
  C   5.33299861744362      4.56717820541062     -0.17724713874166
  N   5.09708238491557      5.79022130499497     -0.95216218430604
  S   3.57601781227018      5.71552391252015     -1.64330323718155
  O   3.67925272951553      6.33613757030058     -2.93864242079666
  O   2.61144775028508      6.21051713428509     -0.70900468833069
  C   4.31686696623759      2.17636513678589     -0.07989373880824
  C   5.23256224200711      1.69102197362904      0.81954194020815
  N   5.10053214988944      0.56307432737711      1.54009196457692
  C   3.96578274874534     -0.12711057132185      1.30379388467663
  H   1.13617064157217      1.49351577787351     -1.21494538725984
  H   1.40670684258862      3.64299813520991     -2.41600632489948
  H   5.32096028238836      4.03069586756691     -2.67437715339080
  H   6.40635688237477      4.37553619796666     -0.13553652131347
  H   4.96366358350427      4.70057923067322      0.83939188073363
  H   5.78251779358256      5.97125146996083     -1.67471005910546
  H   6.15704236557973      2.24176543332656      0.98301825008014
  H   3.84187765676821     -1.05778687477365      1.84709350621531
