22
Coordinates from ORCA-job 4007optt
  Br  0.89298550969319     -0.60586976557223      0.18224444843367
  C   2.60607145797320     -0.27159982839178     -0.60537280985873
  C   3.13829670907195      0.97030793692012     -0.65580920162413
  C   2.96175950931427      2.15341227115296      0.21749674653081
  C   4.19794656499533      2.64607313514127      0.51343569130491
  C   5.21584102749271      1.83212144379445     -0.16354245939366
  C   4.52487168365126      1.00333320581583     -1.05111668494586
  C   5.27232619312430     -0.16820750148629     -1.12642225705428
  C   4.72084827590329     -1.45105008060678     -1.09486888173283
  N   3.30602824657120     -1.43409083383148     -0.93001671659817
  N   5.64379011835315     -2.16599776657879     -0.23839300345691
  C   5.92459820850612     -3.43142966864191      0.15667148358221
  N   7.04365403040842     -3.48736232706361      0.84221142132011
  C   7.54002882964638     -2.20218407974603      0.86319974084163
  C   6.69969252115716     -1.34701806557466      0.19480175445359
  C   6.37479397633800      0.01015483872157     -0.26023982986064
  N   6.35870817108323      1.23505104112229      0.32403518286981
  H   2.01576088669510      2.52208728447015      0.58599938776053
  H   4.38581052516821      3.44465548871919      1.21917613252111
  H   2.76790279538754     -2.27626556691202     -1.03925562364477
  H   5.28451152892575     -4.26984264626945     -0.06977251599947
  H   8.46777323054017     -1.97027851518278      1.35853799455109
