23
Coordinates from ORCA-job 4014optt
  Br  8.48644210713948      2.44907550886586      0.44128768173174
  C   7.05671557686165      1.24736028357664      0.19220633070539
  C   5.73328135045195      1.58712745878411      0.24279856172312
  C   4.71702080022191      0.55985588981765      0.09888490008123
  C   3.44903810179653      1.15734440569461      0.21309324751477
  C   3.64871389493678      2.52087757489316      0.42197358230740
  C   5.02634303983275      2.83361527954283      0.46716341348168
  C   5.50604470391233      4.16882128317825      0.61357115074369
  C   4.83920864593718      5.18876882641194      1.22656679111262
  N   3.70342942794692      5.05805178845540      2.01188389657797
  C   2.79058784646787      4.22582124066461      1.71861552736580
  N   2.65407102791536      3.55084777615269      0.46222084383255
  C   5.04942056132075     -0.78806868518456     -0.09523732027313
  N   6.24219156683422     -1.29738801300744     -0.21325755529624
  S   7.58301506110292     -0.38329074479298     -0.22474005703113
  O   8.47749693738097     -0.86781869347454      0.79209113422694
  O   8.10798853589621     -0.34416151933673     -1.56496174492432
  H   2.49178128978774      0.66763369929655      0.11385491061397
  H   6.50532640072670      4.39444458358903      0.26586207983147
  H   5.32558299895678      6.15321289345251      1.30675801871665
  H   2.01964844523872      4.00667522565504      2.45256762505943
  H   2.90166609450692      4.23131848442882     -0.25773213529606
  H   4.23198558482727     -1.50812454666347     -0.14547088280555
