21
Coordinates from ORCA-job 4020optt
  Br  2.41089806258649     -1.00962458412426      1.19585273003577
  C   3.96375650350486     -0.10549620291473      0.57768254472270
  C   3.93358365104802      1.20181897195232      0.23055870735345
  C   2.78721382300040      2.07314913812491      0.17177211031928
  C   3.22623570520445      3.28974812438085     -0.26070273611356
  C   4.64137065751420      3.24555516801360     -0.46662377673089
  C   5.11673928370254      1.97326714592977     -0.17510399985872
  C   6.46513492943217      1.46080942971918     -0.18715144149500
  N   7.60417034143816      2.09415817916928     -0.25970729844097
  C   7.84203259310638      3.43723090491630     -0.32967050266342
  C   9.27843223544918      3.73493742824990     -0.09536829179286
  O   9.78561456307446      4.83275021804930     -0.03591354180873
  C   7.07945109745451      4.52571922314673     -0.62654596388074
  S   5.42520243531285      4.68898231026587     -1.05061345971234
  C   6.68369392832618     -0.00802687527328     -0.08187725767059
  O   7.71517460675754     -0.59324220089098     -0.29612944154527
  S   5.35417712349298     -1.10363359018790      0.47773245194586
  H   1.77695618892737      1.78037689108521      0.40692227477297
  H   2.61933707924490      4.16735443147562     -0.43464066047059
  H   9.88061839212999      2.81641394205061      0.02743845274951
  H   7.61020679929231      5.47075194686166     -0.66791089971587
