21
Coordinates from ORCA-job 4026optt
  Br  0.94171832278552      0.35027860801768     -0.06072636930894
  C   2.80850706582377     -0.01023666907359     -0.06083334133406
  C   3.25590094001686     -1.31790919187718     -0.06127929821913
  C   2.84874193057486     -2.71472445797329     -0.06164165822838
  C   3.98377458093834     -3.51460092394539     -0.06230490149989
  C   5.15470744970348     -2.66559883480451     -0.06169408017482
  C   4.65178397960683     -1.39802360895886     -0.06123443467205
  C   5.62324218719958     -0.41562894296077     -0.06073546742198
  O   6.83878665706312     -1.05344618035373     -0.06077712652745
  C   6.59479688617806     -2.47769753949040     -0.06132110972297
  N   7.56640938099111     -3.28639063534189     -0.06151887204192
  C   5.19115916158781      0.87102108781951     -0.06029621709209
  S   6.07198856203743      2.37336092464733     -0.05959958102727
  C   4.52481430118770      3.34180997214536     -0.05986404662988
  O   4.53588082396762      4.55650656209650     -0.05977447064171
  C   3.41610882717219      2.43646321436522     -0.06011619146436
  C   3.73575055191686      1.08751755219876     -0.06040352519482
  H   1.83080986131240     -3.07409450086124     -0.06170027982432
  H   3.97226974102716     -4.59448759174486     -0.06285227510200
  H   8.44684041199976     -2.77558403769044     -0.06115617089284
  H   2.41100837690953      2.82946519378581     -0.06017058297912
