20
Coordinates from ORCA-job 4029optt
  Br  4.49919450176718      0.41932843923992      3.22604647303115
  C   4.81718950984321      0.43350155188591      1.38572312559594
  C   5.07455229458599      1.47651502589065      0.54085523055619
  C   4.96059408959950      1.17583971842806     -0.88155381961950
  C   5.12406966535308      2.32120640576845     -1.60126562218384
  C   5.35193933380716      3.40526903155624     -0.70663972187276
  C   5.35991968853506      2.88186341054136      0.63851965533808
  C   5.83483843277764      3.48355921137779      1.83911104167915
  O   6.13971465663745      2.91640142853544      2.87261326637463
  S   6.06096946089449      5.27571703117982      2.05020938839400
  N   5.69626419864644      6.24430808814252      0.76245686164306
  C   5.48553378935107      5.98264531578201     -0.45892325009172
  C   5.47802065979787      4.72097307470784     -1.26447543823615
  O   5.52898765894783      4.91121405190800     -2.49034407767744
  N   4.67648929584450     -0.10042756292277     -1.35037078084483
  C   4.51847579490247     -0.99063395363944     -0.46745377819886
  O   4.57683554079976     -0.82902089304218      0.87419983497475
  H   5.06445331149360      2.42440641878367     -2.67249843293193
  H   5.32074469569776      6.84493220343087     -1.10679187024285
  H   4.30521342071784     -2.02359799755419     -0.71441808568710
