21
Coordinates from ORCA-job 4032optt
  Br  1.46248023119590      0.47260228449604     -1.03766711150228
  C   2.81255798579218      0.05479493975486      0.23829611663401
  C   3.37672805978116     -1.23985084080933      0.28947228277080
  C   3.26271815815883     -2.52231117832441     -0.38310134403597
  C   4.48548245886987     -3.18473966650803     -0.30729933096570
  C   5.42367048740652     -2.38034420416612      0.44009239027226
  C   4.64985846919573     -1.30952279388873      0.84379349091898
  N   5.40894945369628     -0.16325368167468      0.94377512746787
  C   4.97560487708705      1.02582714906792      0.50423427610026
  O   3.63514683832934      1.20766707815064      0.49092429383295
  N   5.95862852193879      1.74290751314762      0.02292255525731
  C   7.05730615462270      0.87512530526877      0.06205659396460
  C   8.32876712322864      1.24954756363192     -0.51552244354276
  O   9.30177249885451      0.52386124927205     -0.55370664665567
  C   6.69430286258759     -0.37033352322839      0.57100916677019
  C   6.82480033114789     -1.88140282013122      0.33008508580328
  N   7.87352580691299     -2.50033350323916     -0.03925051690363
  H   2.37285813144534     -2.90120731794727     -0.86384120311498
  H   4.68472018279044     -4.14896606692793     -0.75292580772888
  H   8.35528155380662      2.26237821302822     -0.95566654833567
  H   8.65383981315156     -1.84544569897275     -0.09968042700696
