25
Coordinates from ORCA-job 4034optt
  Br  0.70306787326440      0.40717258899486      0.79969508255325
  C   2.78725837735737      0.11297472076380     -0.50753370562809
  C   3.65137294525729     -0.87004659181191     -0.16129783440906
  C   5.08817264884333     -0.67132088919810     -0.07083276391482
  C   5.75432572682848     -1.94672110495579      0.43712212079108
  C   4.58118962052267     -2.86003935540579      0.61269663824753
  C   3.44338399612864     -2.25382847269458      0.25594327118029
  N   2.35534533912833     -3.12351040382090      0.29747863469491
  C   2.80251781091841     -4.40951728749225      0.85383395549686
  C   4.35084805852651     -4.30850466709326      0.92454645611253
  C   1.10777383848810     -2.95256542194357     -0.20470125517959
  O   0.27164813808713     -3.83659021736331     -0.18803434369899
  C   5.73273106526230      0.47496565484875     -0.36858541763910
  C   5.08500595739380      1.67618085031031     -0.85915830713780
  N   5.65584292337721      2.76782923937560     -1.21511687964081
  S   3.30807288280155      1.66332123890292     -0.97219972705615
  H   6.30695143587942     -1.74959036541620      1.36142363214011
  H   6.47974715341943     -2.32497094363390     -0.29196715811095
  H   2.44275007636126     -5.21853022718674      0.22024047283626
  H   2.36137078106943     -4.54266304170743      1.84312334954197
  H   4.82971733030364     -4.96747329659691      0.19107935769411
  H   4.71798432414580     -4.61249753385071      1.90764532074723
  H   0.93800691419754     -1.95202919151902     -0.61649514152902
  H   6.81207268427610      0.53526273556519     -0.25313401911737
  H   6.66584209816172      2.67669198292900     -1.10577173897439
