22
Coordinates from ORCA-job 4037optt
  Br  0.98457287670073     -0.14587717319849     -0.05231095570280
  C   2.89339199050749     -0.17233856027420     -0.07081327508461
  C   3.55069342408474     -1.36754357541194     -0.07837139947433
  C   3.20004915289049     -2.74137932878136     -0.07798999250569
  C   4.38212012633172     -3.45095174643568     -0.08520762011818
  C   5.50433554683699     -2.56777919809457     -0.08972164188921
  C   5.00848196583055     -1.28845187614411     -0.08637404618506
  N   5.60314984446113     -0.04547253980756     -0.08870698592803
  C   4.81002940084524      1.03226200044451     -0.08334885888030
  N   3.48935378481640      1.01888582705831     -0.07391588657004
  C   7.10580651081417      0.19680739003975     -0.09690884267052
  O   7.39074580741884      1.38949063845373     -0.10294132068284
  N   7.95453856072059     -0.79881434855101     -0.09558609439170
  C   7.91048875338706     -2.13261259288709     -0.09307557571121
  N   6.82655310251721     -2.95680685232569     -0.09452834445674
  C   9.15996768102659     -2.83894729493760     -0.08924859691528
  O   9.24185666910971     -4.07683911030519     -0.08644337986844
  H   2.19729866512920     -3.13537499446445     -0.07323276203439
  H   4.47256910756216     -4.52899457520576     -0.08702223668625
  H   5.33793851902098      1.97312103599892     -0.08699688292652
  H   7.07227789798984     -3.93824998229562     -0.09159541782410
  H   10.04778061199808     -2.19213314287486     -0.08865988349378
