23
Coordinates from ORCA-job 4042optt
  Br  0.69754081721878      1.34741443437703     -0.13271991942453
  C   2.56225140036647      1.01675446045239      0.01098201442409
  C   3.50054568848025      2.03163818500469      0.00167321359341
  C   4.90650545462392      1.68855747414654      0.09039325210644
  C   5.64344554207907      2.86080240649892      0.03794343671550
  C   4.74612596730206      3.96266272313608     -0.06200799744143
  C   3.44525692910071      3.46568060235280     -0.08876221428117
  N   2.29617992276475      4.23080036195923     -0.27335061171635
  C   2.07952497952228      5.51064211420596      0.15163176709378
  O   0.95492867158481      5.97412755348350      0.22193287329822
  N   3.16232803939475      6.28845527096670      0.56132711760960
  N   4.43817032693162      6.39877906832233      0.00267216736314
  C   5.12126070101935      5.34079633284366     -0.21265510637117
  C   5.29028770914619      0.32772363944146      0.20660221241521
  C   4.35685031066971     -0.65527424627057      0.22839145998212
  C   2.92417150155609     -0.38573830203949      0.13502150100571
  O   2.08170876669385     -1.29469675814774      0.16022683630470
  H   6.72126587997841      2.94087799305747      0.07843167247422
  H   1.43315578627680      3.72920355832561     -0.42897083049461
  H   2.80953911699848      7.21415527491421      0.74870118261977
  H   6.13172760666462      5.54368734266634     -0.56140612767917
  H   6.34569302612222      0.08292475850407      0.27676670828703
  H   4.62753585550477     -1.69997424820120      0.31417539211549
