21
Coordinates from ORCA-job 4045optt
  Br  1.31981374481574     -0.55029537856133      0.50556485818637
  C   3.18104376822627     -0.39727155065904      0.22114643865627
  C   3.97430445366746     -1.48191652460394     -0.05721640175973
  C   5.37493595927764     -1.26871970658843     -0.26939431167582
  C   6.08577326469354     -2.57512800500613     -0.56119087168730
  C   4.94670794406975     -3.52894206240482     -0.48964451230039
  C   3.73636495308107     -2.91377058122201     -0.19771644475815
  N   2.65506072649481     -3.67266963888922     -0.09175501322999
  N   2.91051600272022     -4.96571229328526     -0.29245628100476
  S   4.63351696285378     -5.20924378884683     -0.62795585721518
  N   5.98727650051998     -0.10349848782802     -0.21837067263029
  C   5.17376154466640      0.91760645860915      0.06240371733225
  C   3.78702158941019      0.86804794004330      0.29259565568343
  C   3.35733825981816      2.20498479359555      0.55641836710311
  C   4.46511643041824      3.00030026165742      0.48072444215017
  N   5.56290950340575      2.22832469887872      0.18167862529848
  H   6.87954200176951     -2.74781014943545      0.18109563484752
  H   6.58780966145603     -2.52446001756345     -1.53863100498020
  H   2.35277446008444      2.52456535613309      0.77649578847506
  H   4.56300139494516      4.06426791277201      0.61680006126844
  H   6.50941087360581      2.54234076320470      0.06640778224071
