24
Coordinates from ORCA-job 4048optt
  Br  0.80617717312112      0.13671036015573      0.07357136412325
  C   2.70422678737566      0.12353363188497     -0.14494283171319
  C   3.40201371633144      1.35285192767614     -0.10468300469538
  C   4.83594182186946      1.25598365683394     -0.30300952850180
  C   5.48639395773769      2.64309832407949     -0.23734163412222
  C   4.27914496300503      3.49478044498978      0.02895938762658
  C   3.14292556319333      2.71328968469589      0.09106967886634
  O   2.08253960259125      3.53361517152976      0.33249214888288
  C   2.66153098449329      4.78696724109095      0.39980532810766
  N   3.95232531912359      4.79925357948447      0.22574961226304
  C   5.40489233815561      0.04121490433697     -0.50247766279181
  N   4.71044129014709     -1.13852383929566     -0.52879648810223
  C   3.38579200737738     -1.05721714202291     -0.35139641522161
  C   2.61869180598841     -2.36563328212425     -0.39052599182804
  O   3.50886771863970     -3.47850056663983     -0.40502217614007
  C   4.04720074797441     -3.79025251260758     -1.57624105136597
  O   3.70048477457499     -3.39837058539721     -2.65233985646595
  H   5.99192001383106      2.89410131525731     -1.17557419508512
  H   6.23653884248732      2.69763112447507      0.55798104005813
  H   1.99990437927209      5.61376977939987      0.58677756303070
  H   6.47743063675826     -0.04722015479023     -0.65259724501682
  H   1.96590377957535     -2.40168087275689     -1.26426571164774
  H   2.01275404027500     -2.48655033487909      0.50519068050867
  H   4.84795773610144     -4.52485185537673     -1.42038301076930
