20
Coordinates from ORCA-job 4049optt
  Br  5.80988489015192      3.91174822827604      3.06062575388552
  C   5.30725838342650      3.75594376873188      1.24766205733788
  C   6.08785126338808      3.12409750999579      0.29984210210869
  C   5.58527195156537      3.07281801283122     -1.05278198784922
  C   6.46627654843441      2.36801243251864     -1.84867486624766
  C   7.57288263350777      1.99868920844318     -1.03297819199838
  C   7.33961982023351      2.45317114772813      0.27784224024599
  O   8.01347764752691      2.11188216768104      1.44603773893203
  C   9.06550733397536      1.30373840419712      1.75172512123609
  O   9.17479235300239      0.88623392520868      2.86342444998122
  O   10.01108250321993      1.01201500238897      0.82449557912368
  N   9.67252043635694      1.75652397243779     -0.36120177533864
  C   8.71143556551200      1.12205117148035     -0.95163697697678
  C   4.30726619504567      3.68674200345773     -1.40442276231283
  O   3.85384177970994      3.66115975978994     -2.54076070619139
  N   3.59346731365804      4.31508461516923     -0.37440491715865
  C   4.07753179216311      4.32888918481887      0.83779508796612
  H   6.34565902075462      2.18133446219759     -2.90398784359720
  H   8.61665392623509      0.03571245547087     -0.88178914525703
  H   3.48471864213235      4.83015256717692      1.60018904211056
