21
Coordinates from ORCA-job 4050optt
  Br  7.53382555423008     -0.84822719356576     -2.06023216938786
  C   6.38750781884227     -0.29451729796688     -0.66024902033933
  C   6.47801780945775      0.93670176719466     -0.05766610015662
  C   5.51467838040133      1.24753692478646      0.99250544658205
  C   5.76951158498856      2.52024829618774      1.48080397913144
  C   6.87340563696259      3.04794570532382      0.76531125897363
  C   7.31510164297169      2.11011756992054     -0.17538491941156
  S   8.85002128207040      2.15241971352106     -1.08433671576379
  C   9.61282581523437      3.74993303959377     -1.19894874974858
  N   9.22468989891049      4.93197392530828     -0.91596132599317
  C   7.93612055610148      4.81251249866411     -0.34704176555105
  C   7.74308897952198      4.22278088348300      0.84057014247485
  N   4.53785648455231      0.38648519816666      1.39674137379030
  C   4.48972724193528     -0.76868900764940      0.81868811574425
  C   5.38310633134967     -1.24542461349738     -0.24323675906655
  O   5.24986010033469     -2.38313319904314     -0.72408322275354
  H   5.21177311086824      3.01977077988645      2.25800326661608
  H   10.58688851140149      3.60233791099779     -1.66651443965020
  H   7.12398829254461      4.88358269536557     -1.06589443848336
  H   8.55928999004965      4.21533926681698      1.55891136134667
  H   3.72571497727100     -1.47769486349435      1.12801468164635
