23
Coordinates from ORCA-job 4055optt
  Br  1.09799997797631      1.30149093882200      0.68031358714853
  C   2.74583048699418      0.77255309308040     -0.16695723177285
  C   3.79413396369476      1.67790339056374     -0.23429702673183
  C   5.12866389270320      1.29413954623682     -0.28981010420124
  C   6.04089418137433      2.50284841101203     -0.35618522816765
  C   5.10970481805425      3.69029383590335     -0.21867682411525
  C   4.27144656100421      3.84377934224458      1.03015637538710
  C   3.71103205468609      5.20945682521824      1.35700303120788
  N   2.72925339970614      5.73152693736252      0.41712789667523
  C   2.31105463202257      5.01059217299603     -0.52668039896927
  O   2.67311833300132      3.77312214617538     -0.89555801345379
  C   3.70596796574404      3.15667892937259     -0.16791356070419
  N   5.67684713213481      0.06921348647099     -0.20241567318571
  C   4.94926444615206     -1.03610368416366     -0.16619455100563
  O   5.31781125208466     -2.18795515032278     -0.07489202782653
  S   3.06169404978714     -0.92417198788938     -0.28897150365330
  H   6.58965613073448      2.52849745533633     -1.30267675256744
  H   6.78446468043267      2.44756091249186      0.44332146243862
  H   5.28884320510581      4.59963432284564     -0.77975129436714
  H   4.50792893360233      3.20487575042888      1.87360502553062
  H   3.21711818226582      5.16132206432956      2.33061357027191
  H   4.50781126656633      5.95408069140240      1.45162372217061
  H   1.54646045417236      5.38666057008238     -1.20078448010870
