25
Coordinates from ORCA-job 4056optt
  Br  3.41206115545419     -5.86612085474182      1.20581465536627
  C   4.48349306605138     -5.16509178068505     -0.20989305710354
  C   4.57558314870044     -3.77080181673442     -0.32277066255665
  C   4.14394940111446     -2.69453550462825      0.50510121423838
  C   4.55018593901934     -1.47407083538505      0.02166038250305
  C   5.28521341352429     -1.66583266434570     -1.28330302277452
  C   6.74200571966281     -1.21501858937536     -1.40202439218343
  N   6.93661817776270      0.10566182558834     -2.08090415163869
  C   7.29293451728366     -0.60694433271921     -3.34238694215699
  C   7.45443710475695     -1.92277444792417     -2.58080664461108
  O   6.85587703043798     -3.06840089306013     -3.16888653339438
  C   6.07953899139451     -3.78900837166924     -2.28590006992429
  S   6.22014653720966     -5.53049822815658     -2.36604523898636
  C   5.10217167432654     -6.12274898206945     -1.03835154577947
  N   4.99577316328361     -7.40965855184695     -0.94146897222637
  C   5.30516845983113     -3.16681465913872     -1.39891775126134
  H   3.57231118870575     -2.84240574375951      1.41142947721565
  H   4.30266143280184     -0.50858783794661      0.43715736103551
  H   4.74126030051775     -1.21296460197561     -2.12427868037073
  H   7.23362521719448     -1.30620132961589     -0.43316028459257
  H   7.75639712059129      0.56718855451757     -1.70426001462349
  H   8.16086256762013     -0.21585514796533     -3.87434425221678
  H   6.43707464708021     -0.64096023985779     -4.01837590110327
  H   8.49797437007681     -2.15324140929703     -2.34805313017512
  H   5.54967565559798     -7.88331355720799     -1.64903184267974
