24
Coordinates from ORCA-job 4057optt
  Br  1.19419176033802     -0.11932778514109      1.25307538165706
  C   2.89554001518834      0.06264566764812      0.40606510047738
  C   3.42377885944546     -1.07017232485721     -0.23409149258376
  C   2.89111781639777     -2.38621380564936     -0.38053238241977
  C   3.74781388193893     -3.21378369267051     -1.05280829617824
  C   4.96431457989234     -2.44000885300939     -1.38797064917752
  C   6.38171538593827     -2.95259571277064     -1.23448854440887
  N   6.58346821401634     -4.37540003903837     -1.29630897588417
  C   6.07396129190364     -4.78337470720169     -2.51782856240993
  N   5.72758757169124     -3.86900053064673     -3.33254937763889
  C   5.84464606092558     -2.62404372007492     -2.60890625873517
  C   4.71138386972308     -1.05840395968308     -0.87866806093709
  C   5.53265480379952      0.00646989728717     -0.95338523941400
  S   5.11737647096927      1.55671444514575     -0.25961150466998
  C   3.49271754403667      1.33385186201957      0.51422510305226
  N   2.99309558488469      2.36619997220050      1.11532684655495
  H   1.91878965316933     -2.67308301382105     -0.00568234281797
  H   3.56546645640799     -4.23653591486556     -1.34381440284608
  H   7.09781102251974     -2.35734669347408     -0.68250357889329
  H   6.36777796044180     -4.92803689783018     -0.47909522908742
  H   6.02742626889372     -5.84163253012149     -2.74848523052725
  H   6.11310653961279     -1.74026600216172     -3.17195433690826
  H   6.49631881616179     -0.01554375299868     -1.44831246562871
  H   3.61993957170361      3.16388809171466      1.05230449942471
