22
Coordinates from ORCA-job 4059optt
  Br  1.49438615048934     -0.14938163313162      1.85623149812622
  C   2.77892579312808     -0.16688971699270      0.36887912852057
  C   3.46440434321467      1.02478636269908      0.07197261926273
  C   4.83431341153982      1.02765238082435     -0.15926846716852
  C   5.51136383217125      2.35718800345783     -0.43820167277423
  C   4.53138208274508      3.51926891140929     -0.42909643916864
  C   3.31636169722543      3.13790443060483     -1.29430642728290
  C   2.78916684304540      2.39057408017130     -0.02763846363720
  C   3.59644433265001      3.43287490543020      0.79973898488640
  C   1.33639033817539      2.44974565642395      0.07356152401391
  N   0.20775640482395      2.65969915414264      0.06720235359455
  N   5.70599846392927      0.00397544210509     -0.12065784775364
  C   5.34707130664722     -1.27046650881685     -0.01160271729226
  O   6.06554511041081     -2.24906617616471      0.00819760735197
  S   3.53653582607176     -1.69016706196630      0.10153053349237
  H   6.02272127071685      2.29338109281803     -1.40378229124311
  H   6.29060871290557      2.49056858193438      0.31736855238897
  H   5.02011705377824      4.47335466585195     -0.62517331148433
  H   3.48507667734569      2.52397360013526     -2.17798523270109
  H   2.68520131843721      3.99529200987113     -1.52752517032846
  H   4.00586075145263      3.07281598619503      1.74246330647022
  H   3.03036827909614      4.35291583299777      0.94309193272647
