26
Coordinates from ORCA-job 4060optt
  Br  1.00303495260143     -0.34169641294171      0.73280349439743
  C   2.90105971479025     -0.19815204252727      0.37615806554414
  C   3.52485775201741      1.07452990853426      0.47406994785365
  C   2.80032018112363      2.36451368326893      0.22097013350709
  C   3.65358867186760      3.58088815409746      0.57968576032013
  C   5.05643968926440      3.49003074298045     -0.00896230789488
  C   5.76936563773558      2.22626652984638      0.47511379893387
  C   4.94333176468367      0.99178757050306      0.26081475897808
  C   5.54414571142510     -0.20445954142753     -0.03168723929694
  N   4.91847726964580     -1.40380670153335     -0.12145474699920
  C   3.58103039209198     -1.35497220968935      0.12599447168322
  O   5.82114646434996      4.64881589303635      0.43249018182161
  C   6.29585135725917      5.33856547359358     -0.59481085087153
  O   6.96759437364981      6.31678862583161     -0.53828016755653
  O   5.89762346744450      4.76999432785185     -1.76902209637661
  C   5.10953518873545      3.65852017731988     -1.50693891018324
  N   4.58663685561777      2.94926846905512     -2.38896127009258
  H   1.87505570558328      2.40853564515612      0.79872996629107
  H   2.50827796034708      2.44968484617473     -0.83812317166136
  H   3.78358155307593      3.63694216333880      1.66437987572305
  H   3.18204227872472      4.50781139065306      0.24263549786915
  H   5.93367671415455      2.39530908065339      1.54753413749745
  H   6.74634313359052      2.13717103209192     -0.00755257366413
  H   6.62246498420364     -0.22249816161928     -0.18403079250226
  H   3.04956276628180     -2.30107705788051      0.12825962498942
  H   4.81695545973491      3.28823841363201     -3.32181558831009
