30
Coordinates from ORCA-job 4063optt
  Br  2.66693482429440     -0.25032778609671      2.36375449534692
  C   2.95752668274673     -0.00596716067591      0.47912052234043
  C   2.92779376184455      1.31696158770920     -0.03878208438845
  C   2.81174222303854      2.51397315170906      0.87228415046334
  C   1.37875916829361      2.91019554389054      1.27193562633397
  C   0.54277699080474      3.27223940605763      0.06805630478313
  C   -0.33769098196020      4.48744852022931      0.01701286950591
  C   0.96196468319773      4.45610795811030     -0.73923651720932
  C   1.06334493247893      4.35376645912131     -2.24668812595881
  C   1.73566384381777      3.05000904294627     -2.67182712399813
  O   2.90191502177598      2.83464677260599     -1.90012931724004
  C   3.05225695481377      1.52710197187662     -1.42674900709347
  C   3.28411829666565      0.55909580592194     -2.36403911822020
  S   3.54177104892427     -1.11456536236385     -1.96086160887507
  C   3.14320610635823     -1.22365951894698     -0.20654748413446
  N   3.10214162790388     -2.41372914627386      0.30889172778720
  H   3.26588289637897      3.36940930425511      0.37025807597411
  H   3.38301106621958      2.32797854639678      1.78287031806366
  H   1.42937964730099      3.77658181258917      1.94241642845032
  H   0.91339137236559      2.09554172448559      1.83028755798134
  H   0.19069456219354      2.42303319229252     -0.50648528769009
  H   -0.39760439075735      5.11217689201594      0.89983568648784
  H   -1.25520736846230      4.42628019905448     -0.55579335226530
  H   1.76675758145990      5.01726095204481     -0.27878979013335
  H   1.63009282157560      5.20487180711165     -2.63187388852465
  H   0.07503722953362      4.39508436659863     -2.71615605073985
  H   1.99134052805899      3.08102831935674     -3.73801318470370
  H   1.05012268625155      2.21166884153635     -2.52640197437373
  H   3.33705395472276      0.79874161506132     -3.41638381560764
  H   3.27382222815995     -3.11695481861999     -0.40496603236190
