27
Coordinates from ORCA-job 4067opt
  Br  1.12391592821075      0.07403733637566     -1.47064364642756
  C   3.10978890261359     -0.02481901374360      0.00426906556850
  C   3.83689208115449     -1.19219296547261      0.03435294453000
  C   3.42468724327362     -2.63714548780742     -0.08227018895981
  C   4.76237343596012     -3.33146828147753     -0.42960375296052
  C   5.85327173919820     -2.45017397989466      0.20641129249602
  C   7.23593029770323     -2.45937307810462     -0.45028790466658
  C   7.99845619423369     -1.24519748800937     -0.01198789664338
  C   9.30042831238817     -0.94926243414414      0.13813292597264
  O   9.46617806327298      0.34008749661300      0.47117546670028
  N   8.21631844861476      0.94485050357932      0.55493199499351
  C   7.34597058914835      0.00870689906590      0.27392672654664
  C   5.90607149537706      0.11155577633637      0.22782344850108
  C   5.21927667179052     -1.08093581027986      0.15582554361946
  C   5.15464609599135      1.34976341406752      0.21269502689737
  N   5.56513867982629      2.56336480851965      0.29680420652609
  N   3.76582739693843      1.14206228157217      0.08469378889486
  H   2.65841035102132     -2.78366539981432     -0.84428897408034
  H   3.02433542752074     -3.02122842657397      0.86228448520761
  H   4.89838947266243     -3.31568945792778     -1.51489130020156
  H   4.80935789801108     -4.37075565106923     -0.10041814145009
  H   5.96913426300406     -2.71567265219153      1.26570216462512
  H   7.09889749253826     -2.41597311986516     -1.53654244556291
  H   7.78100423038831     -3.37879081514068     -0.22829196072226
  H   10.20507978180400     -1.52726576133174      0.03682964314588
  H   6.57529352211716      2.58022320501684      0.39910102833316
  H   3.22992598523659      1.99895810170187      0.03026645911679
