22
Coordinates from ORCA-job 4068optt
  Br  1.18439673247638      0.36418310698758      0.80894228856724
  C   3.02893068691994      0.18633178807563      0.30375767446927
  C   3.69714967810045     -1.06762517082560      0.48350213270445
  C   2.92409133911737     -2.24329343856559      0.75835590896431
  C   3.19406879947399     -3.58187877413967      0.65396004979437
  C   4.45448911868052     -4.14494162739457      0.26133645001297
  C   5.66772181392884     -3.51138236721745      0.36262986419831
  C   5.93884232521578     -2.20557875645541      1.00744384458714
  C   5.14822171898127     -1.06725572246287      0.38537673477832
  C   5.86976375017321     -0.04805604227400     -0.12442690060450
  S   5.23313850999815      1.40463974491993     -0.81500436082165
  C   3.50167785340334      1.38510666478260     -0.26151730788813
  O   2.89764759106546      2.43040294865454     -0.47320333350208
  N   6.53965568144788     -4.39601763570329     -0.16511285210306
  N   5.92388795411754     -5.51894343446014     -0.55449300623415
  N   4.66744883795462     -5.37764098122419     -0.29635981157920
  H   1.89215479722674     -2.03306974790332      1.00032540696237
  H   2.37941159853015     -4.27767947897644      0.80906141306464
  H   7.00339381067113     -1.97005019012716      0.96914235236203
  H   5.65884649896007     -2.29215169695357      2.06373500521918
  H   6.95253684991389     -0.08236470164261     -0.10172022492189
  H   7.53352405364322     -4.30873448709437     -0.28973132802995
