24
Coordinates from ORCA-job 4069optt
  Br  0.98237458078761     -0.18050485761641     -0.39942796719855
  C   2.86557309652462     -0.16411532103877     -0.16341379530322
  C   3.55677817005877     -1.28167919695692      0.35845684120536
  C   2.85744914855144     -2.52452355847000      0.82168425465247
  C   2.84496159894143     -3.61553951213913     -0.25858250148623
  C   4.21558192209014     -4.17863196245573     -0.49945782940402
  C   5.44382146109595     -3.71770035674455     -0.08899991203976
  C   5.76292068299180     -2.47198822295032      0.69226415316467
  C   4.95636885997569     -1.25510783920296      0.30804349320041
  N   5.67581621009826     -0.22267776679561     -0.08998177536718
  N   4.94208664272554      0.92026878475157     -0.35551837492457
  C   3.56221954771075      0.98638654117011     -0.61716839072407
  N   3.01595464862378      2.02505292871277     -1.17128400286710
  N   6.47841830567023     -4.53999071159228     -0.45182590652544
  N   6.14428123351552     -5.57881875488870     -1.10766040307412
  S   4.48753255345423     -5.63016563132718     -1.33257936343411
  H   1.82707179609129     -2.29357345622932      1.08716693042919
  H   3.33675111056147     -2.93112388214725      1.71783474335763
  H   2.45115316155475     -3.18391486729380     -1.18279658853854
  H   2.17369553789545     -4.43279162617409      0.02589418652356
  H   6.81530994443020     -2.24243571629771      0.53496509166572
  H   5.63611936897991     -2.68512447267159      1.75996710202778
  H   5.49242587284940      1.60667763535761     -0.84476093251387
  H   3.73033454482169      2.71602182300031     -1.39381905282604
