35
Coordinates from ORCA-job 4083opt
  Br  1.04059681728011      0.07413937280739      0.46138089240212
  C   2.93733623986766     -0.13232713881945      0.26622042924306
  C   3.45033156960230     -1.18615579255274     -0.54938724422450
  C   2.61445398573603     -1.72990220395495     -1.69798496487173
  C   2.19812117563742     -3.21553768134388     -1.60587296181460
  C   3.40436001231658     -3.97904927064217     -1.08834125863278
  C   3.43048357083018     -5.49761063580837     -1.04676527985376
  C   4.48816772655696     -5.95705676611982     -0.02749944715028
  C   5.87028240037892     -5.26820052335125     -0.06007041252123
  C   5.90031960498288     -3.76868122115215      0.29659362781683
  C   5.47988253102322     -2.80867547856615     -0.86739737516131
  N   4.59647005359005     -3.49355253838498     -1.79527431658541
  C   4.82026002230171     -1.53643073747253     -0.33686797153314
  C   5.59620468743471     -0.74726643276959      0.46476261341535
  N   5.10028316880258      0.44702221155195      1.00945585647138
  C   3.70621505121844      0.66200170730775      1.14792971830981
  N   3.24329912506922      1.54300949237888      1.99219532201731
  H   3.18306051966304     -1.61884527133077     -2.62364722302855
  H   1.72133531939400     -1.11644232338218     -1.79350517364026
  H   1.88823431236768     -3.57266385590208     -2.59449535742517
  H   1.35639699355959     -3.33864964934127     -0.91677501271366
  H   3.48120918878136     -3.65979982628790     -0.04599945295358
  H   3.64770265788773     -5.89194216357802     -2.04723060665687
  H   2.45573843600689     -5.89994480877685     -0.75594581442031
  H   4.64067158069041     -7.03664756006535     -0.12106234694311
  H   4.07416112809497     -5.79116629427919      0.97282526396706
  H   6.35386325404043     -5.43397846194258     -1.02994896325202
  H   6.49360767909003     -5.79544290914299      0.66830367390403
  H   6.90861752572202     -3.50064888862260      0.62192805460706
  H   5.25456409377469     -3.59261134280355      1.16015879730892
  H   6.38486861191903     -2.53983487220434     -1.42282883957553
  H   5.08698291204798     -4.26456281725936     -2.22514187644727
  H   6.62978417907627     -0.97434623340861      0.69113275078343
  H   5.63197066531425      0.83708661090062      1.76996550508640
  H   4.01916319994046      1.99571430431918      2.47118939407229
