29
Coordinates from ORCA-job 4084optt
  Br  0.54030404631940      1.98784765915295      0.49640592509279
  C   2.43692831445753      0.81112074603598     -0.67654929344876
  C   2.80677805920510     -0.46018529969786     -0.34568755026728
  C   1.76556415925719     -1.55501957457705     -0.03106251360298
  C   1.84714512147946     -2.54190330431886      1.20045742345032
  C   3.22352840807809     -3.03899386305459      1.75829092357183
  C   4.08323683621520     -4.14846313662715      1.04469572424163
  C   5.21815914396233     -3.36806028563395      0.24771590199289
  C   5.52585629908575     -3.99283564694371     -1.02976724863180
  C   5.75721988540148     -4.51810125759635     -2.08255008734644
  C   4.40194628093231     -2.07124478993855      0.17634971928271
  N   4.13358243566643     -1.91872478790359      1.61719103791983
  C   4.22195507834036     -0.70336487895259     -0.42789863722517
  N   5.14586714910192      0.12236443086140     -0.81950051434797
  C   4.75362082378367      1.38536313171864     -1.21236230757033
  O   5.50781368317361      2.23600571642028     -1.64836884159648
  N   3.38742864522369      1.67541289639769     -1.06595080942791
  H   1.66669511843823     -2.16837156098666     -0.93431093461986
  H   0.81840532040066     -1.02311317822265      0.07401986731742
  H   1.18391026764524     -3.38333654337945      0.97725629548540
  H   1.39320927436499     -2.01953234109560      2.04741781916781
  H   3.07313744205601     -3.32258270263137      2.80272690112680
  H   3.49327359026891     -4.73403252718194      0.33829513932708
  H   4.51509923232704     -4.82942792723969      1.77719943731257
  H   6.11854584433037     -3.26153767256509      0.84984575552212
  H   5.96699555963896     -4.96501619891222     -3.02361010315779
  H   3.54501100684329     -2.52788355671479     -0.32299798661814
  H   3.66805164854983     -1.03916451369161      1.81103487658095
  H   3.12373132545271      2.62878096727855     -1.27728591953122
