31
Coordinates from ORCA-job 4089optt
  Br  0.75802256689327     -0.25691241062925      0.40830096391909
  C   3.13014050591060      0.05688982315026     -0.38884557889677
  C   3.74206609432358      1.27505006482028     -0.31110126440035
  C   3.17528619964477      2.66131887487804     -0.45263291684488
  C   4.26383360950180      3.53087946638951      0.20501903868706
  C   5.59416092316938      2.75303291053094      0.03460408101642
  C   6.58238067004882      3.00612928687702      1.17380522577721
  C   7.05717862635183      4.45477789234207      1.20173250952775
  C   7.73072962056642      4.82983263281738     -0.12335756102549
  C   6.84220524227938      4.50643813909284     -1.30670887101186
  O   6.62529489536127      5.31323014640515     -2.17907716934045
  C   6.25906639920729      3.11306235590289     -1.31459542338154
  C   5.11937180872233      1.31260925068035     -0.02152268424090
  C   5.87144835316303      0.18592823001220      0.16655512657055
  C   5.24823137221791     -1.10556855010837      0.08691183995981
  O   5.79588227120766     -2.19692725794497      0.23721101054198
  N   3.87303053614515     -1.04686806438134     -0.18679686519674
  H   2.20466830454137      2.75558720275871      0.03489781838010
  H   3.03832021165292      2.93497855889356     -1.50369479268399
  H   4.05335161630905      3.62082291996640      1.27457098627811
  H   4.31391924665335      4.54008792521469     -0.21108280148805
  H   7.44747729531312      2.34580505745679      1.05163165300666
  H   6.10719604478613      2.73440225532145      2.11886213725541
  H   7.75615608184767      4.61493829218115      2.02490664743646
  H   6.20509424469105      5.11806819738105      1.37465080194590
  H   8.64214457070574      4.23088693705908     -0.23383833922196
  H   8.00473481486257      5.88295826384150     -0.17236569198794
  H   7.07826319912830      2.40646336619937     -1.49077851677074
  H   5.55030329681785      3.02424568865952     -2.13834693374724
  H   6.92701880602706      0.20582341865496      0.40353549357667
  H   3.40702257194908     -1.94597087442335     -0.19644992364029
