27
Coordinates from ORCA-job 4090optt
  Br  2.04095037098636     -1.33515291367568     -0.71850161625348
  C   3.44944108155066     -0.41762795752857      0.25368669436426
  C   3.80148074160515      0.95209285044119     -0.07005139241363
  C   5.25412477355355      1.13719089352816      0.13780252398740
  C   6.14569022937120      2.13173673871018     -0.63642472880404
  C   5.12917113200207      3.05869334419710     -1.21449265360252
  C   4.33575883771525      3.75711019410040     -0.11384565345004
  C   2.94938483029551      3.41811580340271     -0.58819232642328
  C   2.88758517888264      3.90695806436806     -2.07610472075944
  C   4.18200375305604      4.50803374372829     -2.67768536271224
  O   4.15740309831666      5.35938038613574     -3.52179893459641
  O   5.37849862493488      4.03738642305947     -2.23501617897443
  C   2.72692360312632      1.88973849596034     -0.40651834830931
  O   1.53998243124188      1.54150901792578     -0.50431567305042
  C   5.89748584797276      0.30714857675460      1.03567541900903
  C   5.25347578562266     -0.79367055503228      1.58241563793240
  N   4.07669477633894     -1.20604333518592      1.05956199298304
  H   6.71158296649334      1.61090931425426     -1.41494720002146
  H   6.85262279001094      2.61453648944348      0.04332331198190
  H   4.48165921165966      2.35005398866578     -1.72175160094751
  H   4.55562391562470      4.82712529674585     -0.12478430383954
  H   4.54267997128667      3.35907586456785      0.87754244949135
  H   2.14397485238991      3.89214610966052     -0.02760972180224
  H   2.13976164560296      4.68524402689584     -2.21225825021439
  H   2.58930713781260      3.08266995071232     -2.73045896722899
  H   6.94349136894069      0.48705597746574      1.26563700238284
  H   5.71524104360589     -1.43541678930125      2.32111260127115
