29
Coordinates from ORCA-job 4092optt
  Br  1.14476058122642      0.12900492413855      0.37383020881713
  C   3.10588180739576      0.03375085853549      0.23508406731380
  C   3.66700401603167     -1.16004116079146     -0.16769005241046
  C   2.87926460382468     -2.27967115810523     -0.82054968609273
  C   2.28394854972218     -3.37801679829839      0.07274936940534
  C   3.33536177138196     -4.33083080868441      0.63625451683642
  C   4.00435449461399     -5.23808596413299     -0.44915710991299
  C   5.48752230197507     -4.78702725474361     -0.52368113695155
  C   5.43662178980461     -3.44909318386869      0.13957267428963
  N   4.48188319270512     -3.60026577896281      1.19329221980815
  N   5.84965350335351     -2.29927947114093     -0.37735565880306
  C   5.12371649690847     -1.17969692180130     -0.19958826513201
  C   5.75476855535935      0.08921229676209     -0.07036854885369
  C   5.02781622915787      1.18596526257729      0.29372575293555
  N   3.68943552580347      1.17327413373186      0.52694697618890
  C   2.76892436152677     -5.24065767117511      1.70107934764776
  O   1.60391771842992     -5.42534794171369      1.93097648934723
  H   3.53412978027621     -2.73669720724113     -1.57036154480476
  H   2.05168019454979     -1.82445185773328     -1.36563797191226
  H   1.54713477143401     -3.95549316271142     -0.49378636858671
  H   1.73988238176157     -2.91467720438742      0.89976640122807
  H   3.48973863594449     -5.08256916932801     -1.39768404475784
  H   3.91054578376237     -6.29825540399289     -0.19950908100069
  H   5.85608563687788     -4.71375590511183     -1.54535383714615
  H   6.11143001129775     -5.50125157839864      0.02603177737133
  H   4.20528717178770     -2.71563284062618      1.60413914680522
  H   6.82806544534607      0.14940778766702     -0.20219541018650
  H   5.51409512966599      2.14565922342463      0.43750593046648
  H   3.55808955807527     -5.76747604388744      2.27796383809040
