33
Coordinates from ORCA-job 4093opt
  Br  1.56407559438534     -1.20799436721383     -1.50029736308688
  C   2.63661283847524      0.02395300900276     -0.51038304785348
  C   2.90949152443840      1.30610425520526     -1.03196074347622
  C   1.96625021738882      2.02765599848662     -1.94938445401915
  C   0.68394572101504      2.46845925004852     -1.20908901113114
  C   0.78817110209745      3.44530536517753     -0.02893572496717
  C   1.37284339907915      2.94601521868531      1.33447927657078
  C   2.23827501094603      4.11553670419834      1.86457192827267
  C   1.74661581001635      5.27781849056094      0.97871354834469
  N   1.48736541314272      4.70283319569996     -0.33886821559046
  N   3.69565232247773      4.00848076747679      1.68507479612619
  C   4.36772049973825      2.75148392577574      2.03823807512273
  C   4.22183056390146      1.73563605346493      0.94242346286167
  O   3.97084140824434      0.45695142330008      1.42011814729168
  C   3.25523393744959     -0.48065019448509      0.66005828426465
  N   3.19007853078609     -1.67843714100296      1.12313141319973
  C   3.79484499547529      2.09983001781468     -0.30638244383632
  H   1.65037141701903      1.40003664104630     -2.78701221049172
  H   2.46780909181125      2.90146812974043     -2.37669988200177
  H   0.18685678939853      1.56566005131545     -0.84171351861583
  H   0.00959162309137      2.92671509776335     -1.94062192231899
  H   -0.24632906848802      3.74284681876988      0.18071522866958
  H   1.90068566719090      2.00196190324207      1.25774349636822
  H   0.55139746576278      2.79050932328101      2.03685724002137
  H   1.99831477637002      4.29125081184400      2.92294520979389
  H   2.47194582178341      6.09060846308834      0.91869240483530
  H   0.80563068814162      5.67817257396990      1.37240262261396
  H   2.38923818880828      4.46660917511976     -0.74280472918483
  H   4.12411068621408      4.77280406421909      2.19238354825699
  H   3.95762048898855      2.29012931165556      2.95116092281219
  H   5.40962127738499      3.01180170084295      2.26438171787077
  H   3.70308745378180     -1.70882609358336      2.00062311921734
  H   3.94919874368411      3.13027005548964     -0.59156117594041
