24
Coordinates from ORCA-job 4094optt
  Br  1.05894940360500     -0.84906307386357     -0.47297999566895
  C   2.80808406254506     -0.29565491687271     -0.03902597713584
  C   3.11827490918723      1.04267673427731     -0.03514762688060
  C   2.33421202638231      2.17069897491098     -0.28368877310499
  C   3.03913605709288      3.38339887419916     -0.26909668592722
  C   2.55098353443334      4.72656318789910     -0.35922814167566
  C   1.30823240126837      5.21375591795031     -0.73704226749255
  C   1.34758456529840      6.62720184514460     -0.61691105851768
  C   2.59947208779251      6.97165346745084     -0.17648846252956
  N   3.32085281673751      5.81546156222089     -0.02634689683278
  S   4.71309000052069      3.06156608831824     -0.15400829538035
  O   5.46169061939944      3.12930754523604     -1.39030417583029
  O   5.35603841462923      3.75740459799185      0.94405576181898
  N   4.47559222421881      1.43067193564700      0.21714537522190
  C   5.53348891472353      0.55537163456635     -0.02910108819618
  C   5.41707276634667     -0.76852532657897      0.03472364913931
  S   3.90995710050005     -1.56346951960526      0.46537628385687
  H   1.26674730200802      2.10620798539310     -0.42333129425015
  H   0.48303117235779      4.61056805643966     -1.07752380554626
  H   0.54964175250475      7.31711955623488     -0.84018834095088
  H   3.03589431579049      7.93298575007343      0.03289542534409
  H   4.24319181942814      5.73267602609526      0.37268091266478
  H   6.46830171765106      1.03201343694579     -0.29535032194592
  H   6.26048001557868     -1.40959034007436     -0.17411420018006
