23
Coordinates from ORCA-job 4096optt
  Br  1.00097020650364      0.00875246867680      0.07643780613298
  C   2.88993701640864     -0.08253389695438      0.06009159295893
  C   3.58792421489550     -1.24085835109740      0.05484726914113
  C   3.22770801706551     -2.63995781705998      0.05628773551831
  C   4.38945610074899     -3.35873521025125      0.05021555190969
  C   5.54515226257286     -2.49944295599945      0.04536731169876
  C   6.87755201601751     -2.89397628304830      0.04136321762424
  C   8.00814510808771     -2.02824211055006      0.03873112652430
  C   8.05969552238957     -0.63558613765037      0.03776347742789
  N   7.04587074075724      0.26633543093497      0.03948914999830
  C   5.67326936112626      0.07128984662641      0.04496251621891
  C   5.03711506138253     -1.16254003270880      0.04752991387955
  C   4.92154229858777      1.27991144161709      0.04801855917766
  O   5.40852115523773      2.42690258049565      0.04443849380180
  N   3.54064047054576      1.11827604471019      0.05605054428560
  C   9.29231645232454     -2.65187964124018      0.03764974541732
  N   10.33059185039631     -3.15577109371937      0.03743594682337
  H   2.21897037770414     -3.02238788232244      0.06055900369127
  H   4.45307569418073     -4.43969330572237      0.04924530353940
  H   7.09091027747154     -3.95652377452012      0.04119054494199
  H   9.03753232810913     -0.17481300982828      0.03526045429163
  H   7.28283037458854      1.24908070297891      0.03813511669111
  H   3.01627309289778      1.97939298663275      0.05892961830586
