26
Coordinates from ORCA-job 4098optt
  Br  1.47011974533685     -0.10118232987672      1.26914798415370
  C   3.03449750914287     -0.14511628502119      0.05931347740700
  C   3.71890768588231     -1.36398376805414     -0.10313298493134
  C   3.32283742157369     -2.71711493778204     -0.19530304793271
  C   4.47071878366269     -3.47554631880288     -0.40010123388477
  C   4.56126167686782     -4.96362586470083     -0.50846476845121
  C   5.17085415244461     -5.62564819273949      0.74159460804300
  C   4.41105757175556     -6.94632455353407      0.82288238048377
  C   3.03138162338947     -6.49732886393229      0.36092721014937
  O   3.26996984616243     -5.56438614788054     -0.67569592105826
  C   5.59950280243031     -2.61775438256145     -0.42277355013577
  C   6.94009340238420     -3.03235604393380     -0.57008309509162
  N   8.03191172337960     -3.39447062897192     -0.68229910430216
  C   5.12478541313327     -1.29809752112536     -0.23361797451969
  C   5.75564572165789     -0.05848149851607      0.03265949024671
  N   5.14391477455966      1.05744142513429      0.22789906094286
  O   3.72778190197416      1.01309329036418      0.07371135194755
  H   2.31641171414542     -3.09942744393536     -0.13604619377335
  H   5.16001039764221     -5.23084723411044     -1.38703292038471
  H   4.94955346823064     -5.00882973754220      1.61467514882307
  H   6.25159215224768     -5.72526145953117      0.65682921557073
  H   4.40496761294200     -7.38510302431917      1.82051728570699
  H   4.82109111221334     -7.67505720980229      0.12022475122159
  H   2.49014986332072     -6.01552687689731      1.18552402059456
  H   2.41263799023406     -7.30166152001207     -0.03969766425058
  H   6.83434393328627      0.01959712808450      0.13434247342527
