27
Coordinates from ORCA-job 4101optt
  Br  0.79319008241594      0.60342457794518     -1.53588108983469
  C   2.65736888887749      0.35933427526828     -1.23727750679225
  C   3.16303039064948     -0.83390094271508     -0.63624869071050
  C   4.53268334776360     -0.68939491875409     -0.05162005270002
  C   5.29887171577138     -1.76750957739564      0.76393762856418
  C   4.31097845215280     -2.90472115648966      0.75242726935407
  C   3.02765058384918     -2.52702178990511      1.50912729561470
  C   2.10115268480070     -3.05444246974444      0.43550938445993
  C   2.71499599726294     -4.47547056473872      0.30407399109899
  O   2.14825555994449     -5.47552578278161     -0.03370392380049
  C   4.20885676883866     -4.42448351587863      0.79858418333133
  C   2.29653129306158     -2.05325681874630     -0.77078284792861
  O   1.61394520313628     -2.25591910419176     -1.76640953262216
  C   5.22680929337284      0.43717221137257     -0.30666524629945
  N   4.73682669868583      1.46604358209185     -1.06718585786804
  C   3.39600264180186      1.55375225368019     -1.46510640159721
  O   3.01012904274937      2.62428351810021     -1.94068864597985
  H   5.54028642831257     -1.40347829924316      1.76684414379769
  H   6.23375561222074     -2.01857351762883      0.25775507941332
  H   4.07768419378884     -2.83368515512041     -0.30663662156974
  H   2.90459280840091     -1.46472252287108      1.69586134280550
  H   2.96666405711658     -3.07432553919042      2.45471658664228
  H   1.03201489190849     -3.13837235849489      0.62652101332515
  H   4.84139672592783     -4.96533507406122      0.09578318436220
  H   4.28147217767052     -4.88830449926722      1.78608504442488
  H   6.23631525080654      0.56753375258192      0.06439644583969
  H   5.24953920871252      2.32589943617810     -1.16841617533090
