22
Coordinates from ORCA-job 4104opt
  Br  1.09927581871657      0.22339949596385     -0.17781127124889
  C   2.95695604021281     -0.07397064059288     -0.04781115028843
  C   3.53368989775057     -1.33721645698905     -0.04497345959464
  C   2.82854289921284     -2.56379256527555     -0.04201883314754
  C   3.46993329947109     -3.79042142415029     -0.03111632048731
  C   4.86080040587311     -3.80023797684339     -0.02741326444982
  C   5.61326180694897     -2.60271922089192     -0.03402869408202
  C   7.00985291544057     -2.84670990532377     -0.03703836248496
  C   7.32134560125062     -4.17287708402109     -0.03135705561354
  S   5.89992407815230     -5.19466168435281     -0.02190882596468
  C   8.61773992650097     -4.73739128484313     -0.03438300384524
  N   9.66893383177666     -5.20823074935678     -0.03681734144423
  C   4.98419785851046     -1.32670651835246     -0.04138729934201
  N   5.73401566669790     -0.22289898265338     -0.04339976129769
  C   5.13997362654154      1.00029254562747     -0.04987558278037
  N   5.73428117886174      2.14251493916239     -0.00849070500427
  N   3.73844645730435      1.05226342576334     -0.11094187953031
  H   1.74657060307320     -2.53305312033098     -0.04956728955288
  H   2.89960107301537     -4.70961958164576     -0.02938051895725
  H   7.74384883141776     -2.05425545011218     -0.04414582458731
  H   6.73361857853411      1.96462620920248      0.02774696764578
  H   3.33418960473636      1.96866603001596     -0.01288052394240
