27
Coordinates from ORCA-job 4114optt
  Br  1.01067078872641      0.04289783125041      0.79920340689890
  C   3.05213967491724      0.03332635682092     -0.42578269890357
  C   3.67770461600526      1.24898997211934     -0.47520711267463
  C   2.95098832793842      2.53715359464438     -0.70555163779305
  C   3.52523918152540      3.56191133877675      0.26866482518986
  C   5.00381806882551      3.70772157793663      0.05350879254029
  C   5.63775493864166      4.90174192362310      0.08953069779840
  C   7.06895068630599      5.05357381720824     -0.10682943068583
  N   7.73989420798698      6.15431873599077     -0.06360873298261
  C   7.73824505418358      3.79679144200994     -0.39735243164453
  C   7.06541838645824      2.63533473363672     -0.42966352905322
  N   5.71195230477696      2.54304037351824     -0.19320845167816
  C   5.05884572686051      1.27547229378391     -0.16668482834826
  C   5.74168514633169      0.13847996877340      0.15771888337017
  C   5.06663632690469     -1.13149736611661      0.13961060856765
  N   5.53383146521278     -2.29696746644070      0.36520677754069
  O   3.72116786100332     -1.08959629344468     -0.17538628114072
  H   1.88892001928502      2.37896193522260     -0.52381228210236
  H   3.07449061773890      2.90025519026783     -1.73214227577286
  H   3.33998401915167      3.20344471101174      1.28631356742907
  H   3.06455261456312      4.54412526929721      0.16758461117700
  H   5.04389178611039      5.78685042393129      0.28194476851349
  H   7.11536201647380      6.93289095322917      0.14241093770326
  H   8.79782419910497      3.81367930183508     -0.60985117399491
  H   7.54580667053563      1.70144653233086     -0.67808443548778
  H   6.77271789450439      0.14535590533238      0.47524110397671
  H   6.52550739992719     -2.22170305654905      0.57122632155700
