27
Coordinates from ORCA-job 4115optt
  Br  1.83266839449210     -1.65754115382206     -1.60846471619842
  C   2.73916662402579     -0.35963235915388     -0.50971042293200
  C   2.96029886883333      0.94463208740168     -1.02845578951206
  C   2.10020398514864      1.47835826774440     -2.14718535725037
  C   0.67510925104066      1.89601165272630     -1.63200608561555
  C   0.83952691635673      2.82623497792368     -0.47543672609163
  C   1.18368891883271      2.50352123188898      0.81343536429755
  C   1.89779884055712      3.61637434128549      1.29387188480266
  N   2.80946942910487      3.55162102072558      2.36886283833825
  C   4.15201258940680      3.04893392858743      1.86914857371376
  C   4.05040620171943      1.80571247788057      1.03825950297053
  S   3.94548185900790      0.28628196300209      1.89420131375791
  C   3.15595275719953     -0.88669336592059      0.72260971165661
  O   3.04064837534672     -2.02324718534432      1.16492916983589
  C   3.64973770394376      1.90372271990754     -0.27846690548609
  N   1.88391328051655      4.61975461054504      0.42301122293256
  N   1.22163753839929      4.11937235221669     -0.63704148339012
  H   1.96343931770919      0.75146005681703     -2.94828299874587
  H   2.57750626732369      2.36444068274899     -2.57365052806662
  H   0.14548124326966      0.99923663046033     -1.30847209577414
  H   0.11043158368113      2.34989363183599     -2.45200314870385
  H   1.14582798072486      1.52659458722295      1.26736899116261
  H   2.95648833347424      4.48235063279370      2.74600331829863
  H   4.61393405762385      3.83070607956047      1.25368069318033
  H   4.76513977661362      2.89586948885917      2.75953353645505
  H   3.67360626718837      2.90798751534519     -0.69829727877691
  H   1.10342363845943      4.68804312676154     -1.45644258485872
