24
Coordinates from ORCA-job 4116optt
  Br  1.07843401955405     -0.06273142576102      0.03335746196829
  C   2.95619082839469      0.09510802674228      0.03513193379475
  C   3.56278234509091      1.35734293886993      0.03498867090678
  C   2.90492912590783      2.59740014492084      0.03414663579822
  C   3.59856844083241      3.78639526348825      0.03369101683684
  C   5.01010171483632      3.82050162457346      0.03390511191377
  C   5.74739230998527      4.99270215790822      0.03296075729896
  C   7.16543144975441      4.98428764014078      0.03289970492880
  N   8.01302413627744      5.96960166699658      0.03167173804495
  C   7.70682482908126      3.62358138049271      0.03445503330462
  N   7.03212502257365      2.53624826939306      0.03538953441584
  N   5.68229860549559      2.60386659665040      0.03500923379886
  C   5.01183021587620      1.35308370747968      0.03576017568308
  N   5.73708646941689      0.29212265629950      0.03695157804742
  N   5.07742644607525     -0.89318938722021      0.03749813902034
  C   3.70838208344907     -1.12117844247662      0.03654291215976
  N   3.19174384642538     -2.30697425486719      0.03693884155552
  H   1.82370864639002      2.60368669620027      0.03379995238649
  H   3.08141372095556      4.73548449974534      0.03298191152128
  H   5.20356894640172      5.92936787096940      0.03205101882852
  H   7.50779771814967      6.85513107620773      0.03060353166133
  H   8.78584767230960      3.51134853650314      0.03477787500906
  H   5.68902374948773     -1.69011135764284      0.03856738114538
  H   3.92606765727904     -3.01207588561373      0.03791984997113
