31
Coordinates from ORCA-job 4128optt
  Br  0.69571265879433     -0.69701983317399      1.21222136828247
  C   2.95462166279971     -0.15814078094117      0.07498515830260
  C   3.54031971472889      1.07688559625262      0.11956419644464
  C   2.70756171636904      2.33198648565586      0.12465927973288
  C   3.48377121792007      3.55304153794804      0.60949912413194
  C   4.89665996724428      3.67080115167532      0.03788430175840
  C   5.64706614489226      4.89654895036696      0.57602514153770
  C   6.69527358674450      5.14137330248385     -0.49933607544259
  O   6.06958166821305      4.73034107266325     -1.71679203689018
  C   4.97492716848377      3.94372126714586     -1.45273463461349
  N   4.19646856553526      3.53403863578533     -2.34803240669928
  C   5.69484020134312      2.39190956598915      0.35788976122155
  C   4.95840633279983      1.09389457797976      0.11264762104675
  C   5.69086788586758     -0.05725398540913     -0.00333098773350
  C   5.06772160696130     -1.34983158323488     -0.08901328311894
  N   5.60852664501916     -2.52005529824773     -0.21176866891138
  N   3.67858811046668     -1.28033293324288     -0.00380446886312
  H   1.83474814650984      2.16785670809172      0.75978731376258
  H   2.34039241691561      2.52712247835088     -0.88413034782603
  H   3.59491663587363      3.50436839480756      1.69893822893238
  H   2.92835957905888      4.46731600039653      0.38294129736274
  H   6.07783280225753      4.72489691627205      1.56214724085815
  H   4.96445326514733      5.74784770336585      0.63592103206906
  H   7.59388527915462      4.54043038705440     -0.34053533963330
  H   6.98417456448651      6.18608416510477     -0.60699137615221
  H   4.50624264247512      3.85641876258397     -3.26423187613514
  H   5.93725011220064      2.43049156611148      1.42601308957407
  H   6.64631091995373      2.38160925863217     -0.18128589509571
  H   6.77439082111166     -0.02349490182070     -0.00033989584248
  H   6.61813875951783     -2.41977864758811     -0.25320230294469
  H   3.19198920115400     -2.16807652105893      0.01740544088410
