25
Coordinates from ORCA-job 4132optt
  Br  0.98255890469341      0.06727504816034     -0.13518466243745
  C   2.89179120789001      0.02034366292362     -0.01613580290304
  C   3.60065123627237      1.18445522015869      0.00968958294362
  C   3.23266386455388      2.65731172066842      0.00181334624084
  C   4.59445874163368      3.34441937622172      0.09822683609851
  C   5.59482424031673      2.38472443474916      0.15017043655380
  C   7.08588287704413      2.41834072951069      0.27971222691666
  C   7.65814839127968      1.11141493292622     -0.28971371228484
  O   7.07965818866981     -0.07526961946930      0.25519453289817
  C   5.70613401838016     -0.11081051180446      0.14709129764130
  C   4.98202193718493     -1.28711156519651      0.11894410276920
  C   3.54715584094778     -1.22340916438003      0.03957737384915
  S   2.84683219592345     -2.82044705228901      0.03001834744798
  C   4.42366497328389     -3.54577099914328      0.12493167008340
  C   5.43321495567351     -2.65140753351353      0.16546491657431
  C   5.02775245541373      1.10648503513112      0.09441933779331
  H   2.55890598969780      2.89802898743893      0.83837239457017
  H   2.67071633939138      2.92323576040403     -0.90652730484705
  H   4.72251100500449      4.41740376073279      0.10912017017735
  H   7.39676759434195      2.52423112851502      1.32689352896456
  H   7.53606717573087      3.25153015579881     -0.27203960182877
  H   8.72540888318859      1.02530155653048     -0.08144143803904
  H   7.50892386964211      1.10348317431674     -1.37595573166281
  H   4.50609404352242     -4.62162806271458      0.14764988111665
  H   6.47719107031908     -2.92613017567612      0.22670827136404
