25
Coordinates from ORCA-job 4133optt
  Br  1.00981541443065      0.35420544006257     -0.29846654496966
  C   2.86815422146171      0.13131216934786     -0.06499056485260
  C   3.68882900107766      1.20709488892874     -0.03190380223924
  C   3.49941160541554      2.69497528275122     -0.21075183163199
  C   4.92181706530661      3.16947776313647     -0.61295710742614
  C   5.84302172948630      2.18731085888190      0.12336307959200
  C   7.15315278573751      1.63347849432593     -0.43498661488878
  C   7.05417560241291      0.09388443450545     -0.19312386806435
  O   8.02812760445245     -0.66727152230523     -0.31025089720869
  C   5.67712790415157     -0.19319459329621      0.05674076050327
  N   5.00240352354775      1.00694899055169      0.13853178562353
  C   4.84316326146758     -1.31603082287356      0.07934889261340
  O   5.42036296278573     -2.58301994886467      0.06580307427943
  C   5.50411700066734     -3.20664337826443     -1.11018806829386
  O   5.19231316387705     -2.78024127301897     -2.18027483894400
  C   3.41173838654133     -1.24909133313924      0.02248489242703
  O   2.67948067267425     -2.24320496240134     -0.00656679377112
  H   3.17891551906519      3.15214642182167      0.72974327036185
  H   2.73908106904499      2.91213494410618     -0.95887128760551
  H   5.10874807581264      4.21187239932612     -0.35706609843935
  H   5.05505522791152      3.04364706084144     -1.68953332324682
  H   5.99922245453685      2.52782944316181      1.15675911965893
  H   8.03654105558319      2.04789957786646      0.04893801163802
  H   7.24213714083176      1.80500248141986     -1.51403275547169
  H   5.92908755171983     -4.20552281687175     -0.94574848964365
