29
Coordinates from ORCA-job 4137optt
  Br  1.26123789393104     -0.32100690583927     -0.10231877937113
  C   3.17577867964338     -0.16298289780246      0.00757783718118
  C   3.74008380363535      1.10683908541540      0.15509867840244
  C   2.91437449565900      2.36152527854112      0.25451748155976
  C   3.72089769422515      3.56263524276010      0.73816149871851
  C   5.05405008445607      3.69454592283029      0.00822361337873
  C   5.83785976436644      4.95311967370753      0.40769505156208
  C   6.65410460610277      5.34603609958961     -0.82486007148857
  O   7.58871460682450      6.16894897228002     -0.77362833125880
  C   6.10424149271789      4.66646661683202     -1.97372682645340
  O   6.45357480552873      4.74010304968273     -3.16807169506841
  C   4.90566790227012      3.82996704993836     -1.51854539410324
  C   5.88339911389968      2.45010973082181      0.33259708786326
  C   5.13768236386416      1.15053681374811      0.17573901786350
  C   5.83994262064842     -0.04995562373348      0.07122008826234
  C   5.15147655764236     -1.23862300374043     -0.04586331413250
  N   3.81863052443260     -1.29892623646204     -0.08085600185501
  H   2.06228205652910      2.18009576460755      0.91167014710066
  H   2.49424860921597      2.56997183510319     -0.73501492734262
  H   3.90982029907375      3.47164466893994      1.81464444667745
  H   3.13486463027293      4.47299256099859      0.59318973799476
  H   6.48541498316476      4.79119975524014      1.27568693313835
  H   5.15067022771345      5.76912024028374      0.66941857319516
  H   4.87971939026994      2.86434678639372     -2.03530642615182
  H   3.97320605049848      4.35260887664121     -1.77383836462299
  H   6.23235452498982      2.50933477907222      1.37065328513498
  H   6.77929226630074      2.43473728212781     -0.29503467884769
  H   6.92292082020771     -0.04333287365397      0.07425286801398
  H   5.67248913191561     -2.18605854432362     -0.12428153535096
