25
Coordinates from ORCA-job 4139optt
  Br  1.23665514480915     -0.04865854156198     -0.32657203957206
  C   3.11354751564500      0.19553572321397     -0.32112140872214
  C   3.71420116750766      1.38619750179292     -0.15396330085156
  C   3.22900825882186      2.80042996168273      0.04080653183436
  C   4.46148499478295      3.50941376510406      0.66436099346074
  C   5.68666187865757      2.73196378179064      0.14408816506295
  C   6.92592999218968      2.60081027297346      1.03939696805555
  C   7.82049910626553      1.39310629389599      0.73531761952893
  O   9.02925524998789      1.44583262599184      0.92850149017909
  N   7.20411631704402      0.26732168303245      0.29858120235235
  C   5.83459941253225      0.18629568102047     -0.01002385674450
  C   5.11583016266269      1.37243401224224     -0.06898314036550
  C   5.20054000526673     -1.05126730732560     -0.17927550647216
  O   5.68404490268535     -2.17040473809640     -0.14879074887459
  O   3.79802173863624     -0.97554926716425     -0.44825649248916
  C   6.05813073752158      3.17300713926092     -1.25356910185564
  O   5.45127174173344      3.98531497785944     -1.91895365826775
  H   2.34493178881833      2.85468636698591      0.67750672183486
  H   2.98126440326292      3.25600303814369     -0.92097885256394
  H   4.42872637461022      3.41224232713355      1.75190267141495
  H   4.50011204646005      4.56690706060974      0.40244048689075
  H   6.58460410566658      2.46711016430889      2.07069565012332
  H   7.57150316752260      3.47978322129715      1.01267206650347
  H   7.77319391850827     -0.55775467560873      0.17370805501671
  H   6.91486586840126      2.61823893141684     -1.68649051547904
