25
Coordinates from ORCA-job 4146optt
  Br  0.76434959369112      0.47282899002357     -0.51886486534715
  C   2.93754263372064      0.15299736102482      0.26029528523364
  C   3.49913530490230     -1.09644003326158      0.10113567195613
  C   2.68062766620962     -2.36323740619805      0.10593384732229
  C   3.40201465010176     -3.41739831107739     -0.74048913571530
  C   4.76616954709300     -3.64717446485720     -0.13317819196559
  C   6.02741185223630     -3.23466714457477     -0.81014603701661
  N   5.48923131967664     -2.46376932772575      0.29445785686209
  C   4.90731824964058     -1.21043630157010      0.01917384381510
  C   5.77964905153205     -0.15610911316480     -0.23126717697741
  C   7.18126153171329     -0.26211582799983     -0.19105304197041
  C   8.38202176326899     -0.36807071408130     -0.16835252127006
  S   5.08158770699884      1.31236712837562     -0.80841446797216
  O   4.74643571238522      1.20088523118011     -2.19984377281668
  O   5.80498423334364      2.48647737930303     -0.39877979623688
  N   3.67830886745172      1.27019169141516      0.10508644454552
  H   1.69058175588141     -2.14440565118878     -0.29146687784406
  H   2.54540514984248     -2.75122234505245      1.12217261136276
  H   3.49219576223352     -3.04476229953178     -1.76301019686492
  H   2.84470720347200     -4.35489044764815     -0.77248424015607
  H   4.82636669034876     -4.45709551254856      0.58756764492195
  H   5.93474303718315     -2.79128842813859     -1.79609363601144
  H   6.96021710501231     -3.74714995449307     -0.61122787803803
  H   9.44000137707102     -0.44605922609853     -0.12448335504278
  H   3.30473223498952      2.17454472788840      0.35933198522609
