29
Coordinates from ORCA-job 4156opt
  Br  1.40713983137826      0.57148435544765     -0.04767723494692
  C   3.02315907024711     -0.27061225116381     -0.85739429696836
  C   3.54953623951085     -1.40586965283632     -0.22821011047411
  C   2.66190463847046     -2.40805788757687      0.45647518673202
  C   3.28432677334305     -3.79939102127918      0.47342948753008
  C   4.72385068252063     -3.75166762054027      0.97785262520424
  C   5.42692189877431     -5.09968470519777      0.84073171519980
  N   5.88274735728859     -5.09840899435739     -0.54481571619561
  C   5.93913692440179     -3.75377986561000     -1.10697274065430
  C   5.57830448099503     -2.84392380330961      0.08279391651845
  C   4.91694806823189     -1.55902983789419     -0.33683769136563
  N   5.76414082971433     -0.63663273116649     -0.84613141544496
  C   5.27024226802340      0.51418346547066     -1.31045737885242
  O   5.87290564641394      1.48334703589844     -1.70270003212684
  O   3.84023662033155      0.64148233344193     -1.40186115540079
  C   6.03263243517405     -6.21739436603462     -1.28860056345724
  N   6.33175734877467     -6.32812754304573     -2.52610767490732
  H   1.69167824391595     -2.43515540642482     -0.04280958358744
  H   2.46239306709247     -2.08283655411122      1.48507097231661
  H   3.27752143956675     -4.21700960452787     -0.53883775938467
  H   2.69511113594789     -4.47278757663901      1.10261626649336
  H   4.73700081564349     -3.39786955815243      2.01143813799366
  H   4.75868738283798     -5.94436163107916      1.02528751938288
  H   6.27420347212917     -5.17116877743458      1.53250951491157
  H   5.21043697784930     -3.64790310669342     -1.91846247889437
  H   6.92703587372411     -3.52340151924768     -1.51000603773734
  H   6.50412262870532     -2.58407743715541      0.60215272773431
  H   5.86462425630823     -7.13299120476397     -0.71823180858356
  H   6.46629359268496     -5.41335453401654     -2.95524439103509
