26
Coordinates from ORCA-job 4161optt
  Br  0.94877554571569      0.26206891847928     -0.12188293143092
  C   2.84981830225615      0.12245859907791      0.01618150130040
  C   3.59441744298721      1.31585187928775      0.03320490356405
  C   5.02083187125432      1.33400805266267      0.09158278646734
  C   5.54913067451958      2.76607505768529      0.06492550977768
  C   4.27953730235631      3.56342052033247      0.01208338592409
  C   3.83377852348665      4.84651651513177     -0.05602542251711
  N   2.45535916920355      4.80172747811648     -0.13937436583960
  C   1.59717734850738      5.94290429101790      0.01315553233094
  C   1.37923620052199      6.34272411748444      1.41324845419083
  C   1.22587083161304      6.66135317843394      2.55761231143919
  C   2.02396640731606      3.48268243124366     -0.08067798162074
  C   3.14686221495484      2.68891630248292     -0.00663232305994
  C   5.80309204086367      0.22960666235390      0.15891192690030
  S   5.14579365884799     -1.39059115878884      0.20463245395665
  C   3.34903540639098     -1.19346616550120      0.07805080109043
  N   2.64680261406092     -2.28163310749423      0.06142508392624
  H   6.18571578623488      2.93644947318984     -0.80754343966790
  H   6.14652639816591      2.98664979711410      0.95361305248271
  H   4.34588955925826      5.79613998666404     -0.05748859378022
  H   0.63381300412662      5.71831396840182     -0.44964225268531
  H   2.02821244547828      6.78750925792654     -0.53004254735380
  H   1.09488166541077      6.92206494195346      3.57981391833766
  H   0.97476964575929      3.24744129626966     -0.11233759020800
  H   6.88360726760910      0.27664857807550      0.19615378955985
  H   3.24709867310051     -3.09984087160114      0.12005203691517
