22
Coordinates from ORCA-job 4163optt
  Br  1.00975729512270      0.15907933484679     -0.01402220468361
  C   2.92083104605837      0.10400330172254     -0.02081239874697
  C   3.64003235079960      1.32809662823920     -0.02267636193647
  C   2.99952778528414      2.57509378594570     -0.02246866859020
  C   3.68741763134555      3.78589002540142     -0.02312231940695
  C   5.06819470691720      3.78714848484467     -0.02361124786741
  C   5.79736583947032      2.60069662145873     -0.02423133821698
  N   7.15732845814917      2.63322466661854     -0.02438739400658
  C   7.75635828911863      3.77840694391878     -0.02374845229108
  C   7.06509607361321      5.06323028212175     -0.02293251711265
  N   7.58715204486558      6.22403398246580     -0.02210844111400
  O   5.70985592229545      5.00038397651530     -0.02329145899625
  C   5.09890134500362      1.32387742740335     -0.02470027318025
  C   5.82769417453757      0.17067156475223     -0.02683397761338
  S   5.19989343161001     -1.41774118207085     -0.02790857811097
  C   3.40618320004921     -1.21955771004494     -0.02312434120407
  O   2.78037758224270     -2.27072160417410     -0.02241056038193
  H   1.92104391119701      2.60178250634492     -0.02167361744755
  H   3.15867214447799      4.72958279876423     -0.02295866407788
  H   8.84169735298006      3.80462767443584     -0.02367531152946
  H   8.59913887205269      6.12849956683586     -0.02206085373184
  H   6.90748054280920      0.22869092365422     -0.02824101975353
