23
Coordinates from ORCA-job 4170optt
  Br  1.09327948327746      0.50106345555182     -0.47947790930133
  C   2.95824037562275      0.22575866763231     -0.15285290691974
  C   3.78070347442078      1.35473668120217      0.02349638518505
  C   3.55203571883292      2.80604193499120     -0.32766035229909
  C   4.97081480959893      3.30424892746652     -0.72657358941707
  C   5.93447394128425      2.43973777717576      0.12979148038894
  C   6.24297244542549      3.12585645497568      1.39428587022050
  N   6.48854352256798      3.70756722876568      2.35277011387599
  C   7.26455880382611      1.81576758209051     -0.43110539009939
  N   7.28349991664891      0.45066612233582      0.15089459664384
  C   5.90517076911641      0.08457637947298      0.31824050635816
  S   5.20952912755327     -1.49447875452119      0.20129150324110
  C   3.35774404822656     -1.11638944739452     -0.11061898901173
  O   2.72121652026623     -2.14242545480674     -0.25910020310846
  C   5.12106257728626      1.19014826675444      0.30909672524377
  C   7.26847576901223      1.78527583775667     -1.90234385676249
  N   7.31891601579784      1.76133271882457     -3.04823113623265
  H   3.16249656948330      3.38386093653790      0.51876085396509
  H   2.84364079241123      2.92632706970755     -1.14833305721690
  H   5.11567380203725      4.37414284307798     -0.57461301652722
  H   5.14411944206006      3.07202489015760     -1.77788670279990
  H   8.14240384167380      2.37868525099365     -0.11302791147196
  H   7.79842823356987     -0.20652536874839     -0.42580301395452
