25
Coordinates from ORCA-job 4173optt
  Br  1.02002243804868     -0.36086055202047     -0.30317486703173
  C   2.90704937805873     -0.22285411423502     -0.07032278619891
  C   3.70306332865171     -1.39894999011247      0.01724327764281
  C   3.48300245105705     -2.81186138772244     -0.01964657502684
  C   4.70049601134375     -3.44234438560496      0.12952666762043
  C   4.96395404581143     -4.90766571854410      0.09507114263356
  C   5.53075873200709     -5.44176092310324     -1.25046863551779
  N   4.54518474913310     -6.42424356181272     -1.72618628737860
  C   3.63627313708251     -6.43914591276491     -0.85379037028520
  O   3.72861081601711     -5.66071334380624      0.23515386882237
  C   5.73574508389178     -2.44427224522839      0.25996516576796
  C   7.12782330652523     -2.60900242847759      0.43461200354337
  O   7.95778367741984     -1.70084798297649      0.54536752919001
  C   5.07360929725402     -1.19973225639885      0.18602347671266
  N   5.59480271659644      0.07683421938558      0.26058776868430
  C   4.72140656446180      1.14358805912231      0.12488012426438
  N   3.43734474926984      1.00072817546209     -0.02825356967852
  H   2.52386696994891     -3.29405830535269     -0.12834266463803
  H   5.60070741664478     -5.20773397979397      0.93113077776817
  H   6.50314607199199     -5.92292643986364     -1.13119328782477
  H   5.63533059359969     -4.63632342357839     -1.97761419936700
  H   2.74211998146940     -7.05027015063829     -0.89507166968391
  H   7.48788787636300     -3.65932711082790      0.47446447689147
  H   6.59230947025446      0.18128068907463      0.36288580570076
  H   5.15470113709759      2.13346306981822      0.16215282738903
