24
Coordinates from ORCA-job 4176optt
  Br  5.23626063512950      3.31436071925775     -0.95040859113480
  C   4.83223005693866      1.37730608859797     -0.83377292619525
  C   5.70189257717168      0.48490945824139     -1.46906471401848
  C   7.17493558548539      0.76821435075693     -1.57436614815024
  C   7.98683203897896     -0.49738205983441     -1.81901998236405
  C   7.33229858344065     -1.32241939456007     -2.93852130058636
  C   5.94489371337999     -1.79648458284509     -2.50125002433049
  N   6.04559010551648     -2.87926812149878     -1.51601941902837
  C   7.03336824930665     -3.63474848627067     -1.58348331504354
  O   8.06482286448768     -3.59796122560914     -2.51026826911078
  C   8.21840081645230     -2.48298973075397     -3.28941433072284
  O   9.05907833086436     -2.49346239082225     -4.13662023802641
  C   5.10619883074030     -0.65974956395266     -1.96108937461118
  N   3.77774866277981     -0.88441268545341     -2.01286515990776
  C   2.94128479543470      0.01706803148610     -1.49630007149467
  O   1.73524759389424      0.02003210856761     -1.51105372010145
  O   3.51620683965847      1.13797992971553     -0.79325006253747
  H   7.52173558376825      1.26108056001618     -0.66387770274266
  H   7.35552136468894      1.47835984828599     -2.39012922556477
  H   8.02143773517885     -1.09956979341993     -0.90665314595700
  H   9.01337210251796     -0.25055128804183     -2.09669724240158
  H   7.25607226738735     -0.70259707612738     -3.83294419442135
  H   5.39304747656191     -2.20936786708828     -3.35166846728230
  H   7.19052319023679     -4.46234682864756     -0.90026237426615
