23
Coordinates from ORCA-job 4181optt
  Br  1.10946127449568     -0.29497865157966      0.55579645508023
  C   2.94644097559763     -0.09055675732987      0.04737672234038
  C   3.62719294832932     -1.17293591691814     -0.56736421714114
  C   2.88997506715543     -2.37586920011055     -1.09242722950951
  C   2.91885546512476     -3.56744042626358     -0.12549689737632
  C   4.30315596994848     -4.13154619696616     -0.03361977525159
  C   5.46900132388441     -3.53829730295215     -0.48219371087192
  N   6.46408037911203     -4.43250846832323     -0.26707719711895
  N   6.03241335127242     -5.58487732867601      0.28631727063678
  C   4.73428658448908     -5.39403901624690      0.42879442213581
  N   5.71086843743568     -2.31928499981873     -1.09280367409897
  C   5.02719746946952     -1.13738279602275     -0.66113695930594
  N   5.84670382154985     -0.14593140355082     -0.40980832562786
  S   5.23184239905092      1.36151712165121     -0.03732419369220
  C   3.48713995599174      1.16117208667252      0.39101473244008
  O   2.94462494427966      2.12865025117008      0.91449487799683
  H   3.34346470541886     -2.68966596087314     -2.03740156162799
  H   1.85774521033583     -2.10188190040669     -1.29936635747307
  H   2.23256386351315     -4.34654319992946     -0.47282350711646
  H   2.55423711615206     -3.23233224907226      0.84937818721466
  H   7.44248979864951     -4.30759753951145     -0.45565139594304
  H   4.12568361402726     -6.17715211313088      0.85653369573521
  H   6.69157532471665     -2.09951803181134     -1.20521136142502
