21
Coordinates from ORCA-job 4183optt
  Br  1.04645886479708     -0.09491842714016     -0.16120674777552
  C   2.98247543192273     -0.08886733343966     -0.11487628586166
  C   3.64642124009314      1.17072819809263     -0.09108272314896
  C   3.00698896315423      2.40713905391230     -0.07891962153529
  C   3.67408682555455      3.61974866434876     -0.05700763670440
  C   5.08199161249641      3.50681422444970     -0.05321174611685
  C   5.76311538243327      2.29434946040117     -0.06343335416056
  N   7.09304210832737      2.53075709525117     -0.05845023887239
  N   7.28988116934360      3.81263346746577     -0.04564146750587
  N   6.07966715520404      4.40923965359826     -0.04159457820674
  N   5.06412993748015      1.07877555276449     -0.07700075020987
  C   5.75756703257521     -0.17209433777668     -0.07385585008446
  O   6.97362079789628     -0.18024559189167     -0.06154863242240
  C   4.89793836655129     -1.33187643354578     -0.08674712440897
  C   5.51416857683147     -2.63471238214190     -0.07559517318944
  O   4.93407821026988     -3.71057251840962     -0.08235227831578
  N   3.54460011322960     -1.23091976116689     -0.11144550355652
  H   1.92812013906687      2.38924654051214     -0.08682681876671
  H   3.15779848724476      4.56739533079179     -0.04637546099613
  H   6.02112022468083      5.41190832468976     -0.03298430071643
  H   6.61572936084720     -2.59452878076560     -0.05784370744503
