27
Coordinates from ORCA-job 4185optt
  Br  1.34074620240066     -0.26731019377910      0.99980427210535
  C   3.20047940898281     -0.27289318294301      0.43112959379569
  C   3.75788361437744      0.85811512729254     -0.09432229089046
  C   5.11111691188144      0.82664404366129     -0.50021994528504
  C   5.49877424296500      2.07229280534087     -1.22907344520186
  C   4.39027928949859      3.05249966739654     -0.81081885324842
  C   4.72462259165442      3.82490216605210      0.45066918356519
  N   5.73922324838011      4.52051090224509      0.73199945640918
  O   3.72041248037319      3.72347260194560      1.34693927585369
  C   2.62759677321254      2.97208525730730      0.82703035524077
  C   3.15583374265391      2.21273936939002     -0.39950419769148
  C   2.07941704701888      2.13718059885400     -1.49343431784235
  C   2.59564587269964      1.62711072162171     -2.76376088581511
  N   2.98502743057257      1.27483926333574     -3.78319670127013
  C   5.77946302492840     -0.43324132209176     -0.40279611267318
  C   5.10541467000033     -1.48351705134979      0.15778787020682
  N   3.82287197851567     -1.45676129341204      0.62711504486231
  H   5.50032062023705      1.95282370658488     -2.32485071903413
  H   6.48644181115340      2.46126168808419     -0.95384092676063
  H   4.14711559055197      3.77444785984900     -1.59829345399317
  H   6.40025427779905      4.47283298230107     -0.03863441113224
  H   1.82919931077060      3.66934471659551      0.54893297283589
  H   2.26650387780696      2.31096346550236      1.60963788672237
  H   1.66894648625397      3.13216909585117     -1.68944277096045
  H   1.26479304027413      1.48905949634950     -1.16532246484399
  H   6.79915481945217     -0.56777951360046     -0.74327140072528
  H   5.60446163558497     -2.44279297838435      0.26373698577068
