25
Coordinates from ORCA-job 4186optt
  Br  0.90715050852916     -0.23338740044306      0.46973760127118
  C   2.72329268038607     -0.12272271569904     -0.12016112831679
  C   3.57604878505090     -1.23316613947693      0.01834925806422
  C   3.28382727146419     -2.59006970772495      0.25483188874767
  C   4.49703346527441     -3.30285909621827      0.24383686595620
  C   4.67519273582381     -4.75770081391357      0.40955214569561
  C   4.29020280595404     -5.44045347636328      1.65002422786641
  O   5.65634598613666     -5.20194664730175      1.36454195961116
  C   5.54600348602886     -2.39639036695857      0.01694771289021
  N   6.91373172787336     -2.75787435197553      0.02514862373534
  C   7.80565058991399     -2.50933355316652     -0.97798206719477
  N   7.66294098644452     -1.82377778447809     -2.04174286528227
  C   5.00979029109180     -1.10900539653846     -0.10661502924481
  C   5.67539318326300      0.15132744057840     -0.19419926498999
  C   5.02863095371343      1.33004482060465     -0.23932838050312
  S   3.29344955167921      1.52121532466808     -0.23847140283634
  H   2.29906409520151     -3.00827091161502      0.40376489507922
  H   4.69573742429493     -5.37292515663440     -0.48859379694331
  H   3.99685198626342     -6.48558347626753      1.62920197604966
  H   3.87464022955390     -4.83799814962550      2.45021848604784
  H   7.16606638444461     -3.47271434702645      0.69018532797799
  H   8.77570480456347     -2.97233827897438     -0.78740591477084
  H   6.71236391129331     -1.45495098518812     -2.09960004549592
  H   6.76095602493851      0.16343561270076     -0.20994018107700
  H   5.55193013081876      2.27544555703761     -0.28530089233757
