27
Coordinates from ORCA-job 4197opt
  Br  0.54890774737651     -0.54160440693587      0.17877962670006
  C   3.10728978485796     -0.31704933486351     -0.19368164403742
  C   3.74442958184770      0.88558524644525      0.01588372415090
  C   5.11143904332506      0.91021605793064      0.27804056240468
  C   5.60969359460109      2.32186096265182      0.47453848003187
  C   4.47252512812694      3.19112308030423     -0.08710328616678
  C   4.26286511591933      4.52621305970143      0.63014816084839
  O   2.91422201384774      4.94814259472030      0.54449684003856
  C   2.08786243971075      4.14442989611666      1.36509127954482
  C   2.53575853071069      2.68534765337973      1.34166813389786
  O   2.50450990985232      1.99625106371391      2.31852485202444
  C   3.18180400933995      2.28597969785310      0.00707355424389
  C   2.25320531646356      2.54696942911122     -1.08804622775283
  C   1.49533124737428      2.74826281394903     -1.99280178075334
  N   5.88073603184877     -0.16597875211358      0.35602371226727
  C   5.25076317342683     -1.33209920615457      0.16803193607732
  C   3.89187479731461     -1.45790700411725     -0.09887572735855
  H   6.56458510669885      2.49342526030221     -0.02315206072955
  H   5.75539066340834      2.51261818900542      1.54350247399798
  H   4.63594061121495      3.37007230187188     -1.15039984443963
  H   4.86836195369886      5.31518276603722      0.18464303187459
  H   4.55056635879494      4.43559847985365      1.68775342465696
  H   1.06901988340217      4.21502462919249      0.98159065643580
  H   2.11665886503105      4.48282679025884      2.40649093429263
  H   0.79653124515513      2.88069608142618     -2.78203591755812
  H   5.87652789308751     -2.21929782179404      0.22599215880126
  H   3.45819995356391     -2.44288952784648     -0.23217705349309
