26
Coordinates from ORCA-job 4199optt
  Br  0.82169030887991     -0.07516813008855      0.14909025821259
  C   2.66469802972479     -0.10028710857092     -0.44315048353306
  C   3.47489347659448     -1.18835762311463     -0.15473602975040
  C   4.85217398960502     -1.08509134986050      0.04342932782366
  C   5.44688578708395     -2.45115600464195      0.29310637190285
  C   4.35893183292309     -3.40939284722138     -0.19341210499818
  C   4.51837880143334     -3.63982519401205     -1.68369046729063
  O   3.38649922588803     -4.29446633350114     -2.25534730929792
  C   2.19473984385162     -3.82446405619581     -1.81949141778525
  N   1.94432758184227     -3.06870445015213     -0.85054814049025
  C   3.03100385694681     -2.63812292385275      0.03380540929629
  C   2.58525752493823     -2.85275510013171      1.42390239251792
  C   2.30021758302087     -3.02709999859471      2.57550000719074
  C   5.59215367346101      0.09093268307458      0.08497388469970
  C   5.05237685158180      1.38308353755101     -0.15819817593156
  N   5.62230635034644      2.53978820942405     -0.09591339889156
  S   3.34575304915611      1.48025574580268     -0.73128215752135
  H   5.64278401360859     -2.59872404192727      1.35978675248973
  H   6.39413677788904     -2.60075609022747     -0.23745586884019
  H   4.34485607332434     -4.36570835859124      0.33279757939496
  H   5.37484283329683     -4.27921742651768     -1.89455472768038
  H   4.65277689519851     -2.67717328675446     -2.18584932543539
  H   1.38945678069333     -4.20227361118177     -2.44445727888023
  H   2.02274627037595     -3.14623679629069      3.59407951833357
  H   6.65190964806742      0.04646826870630      0.31875266327996
  H   6.59620294026809      2.41145228687026      0.18086272118446
