22
Coordinates from ORCA-job 4200optt
  Br  0.89192197058196      0.16309007594188      0.08124535642745
  C   2.97910104930411      0.05418321421632     -0.01291456099059
  C   3.62417506108555      1.31001710871177     -0.01961992109901
  C   2.94316783892498      2.56053104281921     -0.02367474593548
  C   3.60812683554287      3.74710969860133     -0.02959187195980
  C   5.02471309578866      3.80415171324538     -0.02634398096269
  C   5.71781169698926      2.57500471640283     -0.02334280210759
  O   7.08366882847212      2.55274471491553     -0.01662876185336
  C   7.85075448832724      3.69964674164907     -0.00680526448896
  N   9.11993597745616      3.58943697049814      0.00670497765409
  C   7.15202823382579      4.95747452890296     -0.01322057415600
  C   5.78897385453191      4.98911668027378     -0.02302759641628
  C   5.07056345426068      1.35686666119876     -0.02521797748903
  N   5.86800893674386      0.22917165836662     -0.02239533681818
  C   5.97215874779539     -0.95539697698672     -0.02730174941252
  O   6.23417825365503     -2.09594778336291     -0.03047530493423
  O   3.38688286641284     -1.07033517385180     -0.04370508765991
  H   1.86463644073193      2.55106982437111     -0.02548937886100
  H   3.05178417939032      4.67739555933118     -0.03563870184866
  H   9.37636678838888      2.60407294740128      0.00953480156806
  H   7.76388997174366      5.84605855615051     -0.00824554658532
  H   5.26415143004671      5.93853752120373     -0.02684597207100
