27
Coordinates from ORCA-job 4201optt
  Br  1.93750882126806      0.99194542627669      0.34531861494074
  C   3.76173083485705     -0.16782973808280     -0.61983369037128
  C   3.84398490553929     -1.47707468118189     -0.21517299538940
  C   2.63276334972591     -2.36311499318103     -0.13809672937418
  C   3.04157914496126     -3.83179466940722     -0.13576370413873
  C   4.15487290128633     -4.02771973589705      0.88616934180801
  C   4.61303112089525     -5.47309720895282      1.03798506200409
  O   5.49683473546759     -5.87244638580001     -0.00321423664257
  C   6.63836577596592     -5.13257317555431     -0.10766759022476
  N   7.61698254197639     -5.51457096017439     -0.80009084134869
  C   6.62115319211245     -3.82268587173531      0.63982198687129
  N   5.31001511659210     -3.22546101361266      0.52382287720520
  C   5.14046013226209     -1.92309633422455      0.10997196175789
  N   6.23319500835905     -1.17710395177658      0.03672164749302
  C   6.13189717639397      0.10354175108847     -0.36715702314015
  O   7.03046607990955      0.89371076499834     -0.49209851715436
  O   4.83902210219108      0.59061287293679     -0.69198915920752
  H   1.96630960600053     -2.14218201769765     -0.97259479746217
  H   2.06393131419263     -2.13562419152884      0.76995652275810
  H   3.41292978365878     -4.13773772366711     -1.11770889885147
  H   2.19324799612069     -4.47020396279064      0.12365472820897
  H   3.76983446944884     -3.71034582531969      1.86758985086838
  H   5.10902959489506     -5.62077948654186      2.00174631610691
  H   3.75802881487318     -6.14470238016619      0.98718528221337
  H   7.41953921537356     -6.43021613463937     -1.20487105235135
  H   7.35381726279272     -3.14963970436325      0.20763518296403
  H   6.90146900288047     -3.99581066900499      1.68767986045662
