22
Coordinates from ORCA-job 4202optt
  Br  1.05776735578336     -0.20822361904665      0.02778348336344
  C   2.98937392300210     -0.09014887720285      0.02685890406838
  C   3.61407817931917      1.15594600552874      0.02613453119073
  C   2.90596445966261      2.39964485138794      0.02568862531588
  C   3.55533280929337      3.58412432030125      0.02504387364817
  C   4.98598317864014      3.63615373300881      0.02480687378299
  C   5.70159240122381      4.80441254198025      0.02429380307032
  O   7.08109099043187      4.78885405645362      0.02425628477746
  C   7.75604886191054      3.60963095237994      0.02456602198554
  N   9.01386245365167      3.57273595659976      0.02485362508375
  O   7.06438677489575      2.46564863089563      0.02479182583740
  C   5.68581020515495      2.41107954396061      0.02518240473320
  C   5.05470240800837      1.16887369032886      0.02575732563866
  C   5.78458802887605     -0.11498637942288      0.02603600579142
  O   7.01844265016937     -0.22261698576054      0.02596431267483
  C   4.92576672241804     -1.27024051178110      0.02672253355695
  N   3.60580660404920     -1.24919530466710      0.02712754944089
  H   1.82550861612575      2.37502301584270      0.02588392931395
  H   3.00461816150189      4.51777335690021      0.02470906745031
  H   5.29856570256426      5.80315091416445      0.02389915895828
  H   9.36749359648244      4.52440272752447      0.02468627942701
  H   5.41421591683524     -2.23904261937614      0.02695358089045
