24
Coordinates from ORCA-job 4206optt
  Br  1.28759881414118      0.27803264975293     -0.42457701564880
  C   3.17113208186504      0.08852565483205     -0.14564441461292
  C   3.93203318250800      1.24736926969140      0.09782900553934
  C   3.62439334628235      2.69448337341249     -0.20715486591210
  C   5.01765432733889      3.28774999195718     -0.57773955200566
  C   6.05151338517938      2.42698497462554      0.19475164995474
  C   6.31959561550088      3.04471464900044      1.54488356830110
  O   7.40018348540150      3.25871038792767      2.02424093820328
  C   7.34418177643377      1.84681405532174     -0.43297434632707
  O   7.43109122353633      0.48494810456018      0.03940193515269
  C   6.12494587328480      0.08125883546699      0.31331198355211
  S   5.52035363335903     -1.52052833968168      0.05189017211303
  C   3.65423957767802     -1.22695841018209     -0.21578917518350
  O   3.07291008629525     -2.27011994277198     -0.45156910881505
  C   5.28153594999142      1.14610432032881      0.36623936616577
  C   7.27444380511782      1.77292968758696     -1.93876879220158
  O   7.69451683094367      2.62601480666698     -2.67523616318648
  H   3.18608063731106      3.22157723381790      0.64875949826825
  H   2.91320329970367      2.79519440570974     -1.02881804630070
  H   5.09937161834155      4.35356446797807     -0.35036766477807
  H   5.18271899176072      3.17246537382898     -1.64936740524227
  H   5.39391463449872      3.29029240153967      2.10598438074931
  H   8.23843456074224      2.38218663853500     -0.11744123005490
  H   6.80995326278459      0.84468541009499     -2.32384471773049
