24
Coordinates from ORCA-job 4210optt
  Br  0.88721687688056     -0.01398839182577     -0.01821840603859
  C   2.77972099955711     -0.11873595915246     -0.09092586617234
  C   3.44311599450625     -1.25576776563521      0.24461717280480
  C   2.76912991970682     -2.52046151915894      0.67056176231696
  C   2.87984382586841     -3.59027749358133     -0.42867022273667
  C   4.20169375741834     -4.27213660382078     -0.33759162949124
  C   4.48467634034145     -5.57600037914249     -0.48544689021517
  O   5.76317624257218     -5.84250930364757     -0.18740582520783
  N   6.39261459326061     -4.65204183631077      0.20577748644744
  C   5.44748136088636     -3.69727595048115      0.11920538604317
  C   5.76845549225996     -2.36544258680771      0.50388350800713
  O   6.85945059732052     -1.99402035058391      0.96344825520437
  N   4.82359779395433     -1.26470942271534      0.14667377015704
  C   5.43317051890780     -0.10254392035419     -0.22677016556802
  N   4.85768294214545      1.00026077727824     -0.55011995395585
  C   3.46546752019539      1.09019568280821     -0.52929004833068
  N   2.83384178637359      2.15407833545185     -0.86516214337161
  H   1.72937641334149     -2.30483449752890      0.89026243312957
  H   3.24785507922813     -2.89198780864806      1.58000867574245
  H   2.73243047108823     -3.10899714377657     -1.39995476109952
  H   2.08153912640733     -4.32574075313148     -0.31322097758882
  H   3.87066006101986     -6.41735062392333     -0.76920852735829
  H   6.51292855729189     -0.16981550894213     -0.23060386327771
  H   3.52887372946790      2.85110302362983     -1.12684916944059
