24
Coordinates from ORCA-job 4211optt
  Br  0.96548087415488      0.21979525483231      0.17914017451292
  C   2.86950875762309      0.07818234532195      0.05676000538898
  C   3.43964798987283     -1.03501731440862     -0.49122638082402
  C   2.73285299385929     -2.25048452671061     -1.00312073960808
  C   2.87608138366004     -3.42238857542372     -0.02422395394571
  C   4.28476781813919     -3.94494750298458      0.12362043859135
  C   4.57571272707513     -5.13521748397968      0.71945304235882
  S   6.24676965914091     -5.49780981491300      0.72009786740418
  C   6.61426156895259     -4.03676874219165     -0.08590823176647
  C   5.48944541912246     -3.31149406662164     -0.34253458959152
  O   5.55142386545530     -2.14184236714447     -1.03663347586758
  C   4.87166400401967     -1.04900189381894     -0.48003604578828
  C   5.57964080314056      0.03237384784683      0.00048634262664
  N   5.03551384795779      1.12520247143818      0.50378017613553
  C   3.64176939716360      1.15863577845089      0.56545954321350
  C   3.04392824320124      2.28652110847945      1.15652849061900
  N   2.55952928330406      3.22034452189166      1.64770291112647
  H   3.15688041382692     -2.53874131653675     -1.97006295845481
  H   1.67630942747329     -2.03865601612535     -1.15209457302319
  H   2.23642359883740     -4.25031311162629     -0.34259488148016
  H   2.50739628998870     -3.09138222715074      0.95086744473905
  H   3.87139553309206     -5.82976597807182      1.15045902151216
  H   7.62485387763061     -3.76031774923373     -0.33405221701116
  H   6.66674222330832     -0.00390664131969     -0.03886741086761
