22
Coordinates from ORCA-job 4212optt
  Br  1.37276355906165     -1.18723534229749      1.58025936163687
  C   2.80678159803870     -0.50083431916642      0.53296401062697
  C   2.94763594386391      0.84937271951710      0.43449165009184
  C   2.09129268367745      1.86591343723415      1.07637276432692
  C   1.27950952336104      2.61677983030776      0.31770034536335
  C   1.72827905491293      4.00629120536676      0.22791285265241
  C   3.10773127850160      4.06914595678246     -0.09308076221975
  S   3.46865855309906      5.75038100239337     -0.32797674727939
  N   1.92459450765184      6.30584232746743     -0.06393488230507
  C   1.14107626264623      5.28011952710776      0.19442773392354
  C   4.03897242475848      3.03168507144577     -0.35540633384398
  C   3.96813727418181      1.60474207036187     -0.26318903495831
  C   5.07360820470243      0.92550214254178     -0.90616847706888
  O   6.02148497009550      1.44061459687821     -1.46771626937142
  S   5.07872367396287     -0.87427518206685     -0.94537193294184
  C   3.64989158446986     -1.48901249891461     -0.08932625831583
  N   3.43254868459425     -2.74933473659834     -0.03393620187628
  H   2.59975356540198      2.37745371754431      1.89117444663675
  H   0.77147635626916      2.17356602324915     -0.53553548833190
  H   0.09092164680914      5.47192920162286      0.38533214940964
  H   4.97932464504473      3.36462403351512     -0.78020932238538
  H   4.14983400489536     -3.26727078429217     -0.53778360377025
