27
Coordinates from ORCA-job 4213optt
  Br  1.03742223786789     -0.26390347279871      1.16265412060063
  C   2.82132866534891      0.05742748949748      0.53546184421373
  C   3.36798714006933      1.37237864288328      0.46457914998172
  C   4.73425958332475      1.42328325224607      0.02606565204558
  C   5.21762109487021      2.84569680410207      0.13200280681898
  C   3.91417852914833      3.64796495208595      0.14893162268437
  C   4.00330949335824      4.96630375434585      0.89870589910550
  S   2.42423307886385      5.77689778529421      0.85339468994182
  O   2.46711305985532      6.94503582383151      1.70902406638346
  O   2.05260179205714      5.96291948595998     -0.53083652426038
  C   1.39690176187341      4.54571299620496      1.62614710118688
  C   1.65389076021214      3.13562086986436      1.18170877162232
  C   2.86811824547219      2.68257742731323      0.70243092267396
  C   5.45644077618218      0.32553601672537     -0.33989033587383
  C   4.86348217909982     -0.95894252020261     -0.27973764142578
  C   3.55144876042211     -1.05974387541500      0.17317804685447
  H   5.89400263616554      3.13923459405408     -0.67295833055783
  H   5.74509400302602      2.97859007049905      1.08567428563315
  H   3.63143140481641      3.88626424932941     -0.88469294606611
  H   4.70679234758463      5.67164208283797      0.45027636577360
  H   4.24933983146914      4.82230281710475      1.95346195424680
  H   0.37806845619270      4.88214973836361      1.41280045648723
  H   1.57749407002232      4.72027182426314      2.69784712636431
  H   0.88368803632787      2.43612432522400      1.46736965028898
  H   6.48771323890691      0.44026004720186     -0.65759649423375
  H   5.40883515908435     -1.84521401025398     -0.57333995390548
  H   3.07820365837824     -2.03139117056194      0.24433769341565
