27
Coordinates from ORCA-job 4214optt
  Br  1.14355836969101      0.25952777722886     -0.26007832368775
  C   3.02096952083962      0.09684940370164     -0.07193923661938
  C   3.74891419578303      1.21618022545999      0.17644138793973
  C   3.34957852627598      2.66218330576439      0.28576556466119
  C   4.67633430321398      3.41026093211350      0.05272479603409
  C   5.74882728343753      2.40981366667169      0.49004590443356
  N   5.08554641598637      1.13362412644211      0.33526488268010
  C   5.81642007259051     -0.02393567930333      0.10568920499113
  C   7.23914758002649      0.14987531080867      0.42845690913508
  O   7.80213873526794      1.32312381663312     -0.24804573561482
  C   7.04717504710949      2.43386594069618     -0.29611179663634
  N   7.41009180014972      3.48304180457300     -0.90390612852366
  C   5.09005203893077     -1.25183050756282      0.03145840483504
  C   5.76410429123166     -2.47605298514626      0.00911939758830
  C   6.34619545139014     -3.54414521678794     -0.01112080947679
  C   3.63386538338162     -1.24191731939681     -0.12118980174340
  N   2.88069078981548     -2.27676664618227     -0.28340915304912
  H   2.93505925143084      2.86320651129585      1.27811842593509
  H   2.58194060826356      2.91886894958805     -0.44243400389361
  H   4.74643788361132      4.35244866942887      0.59224331183073
  H   4.81887353075588      3.61937284184690     -1.00669391818939
  H   6.02794633716754      2.56472366399496      1.54324519393081
  H   7.82111332095069     -0.70509579625964      0.09749952094657
  H   7.44535004335845      0.31842034671810      1.50191624280116
  H   8.31877169058121      3.32279853680122     -1.33885400700032
  H   6.84827650419736     -4.47925393402113     -0.03167079138968
  H   3.46562102456169     -3.11118774510690     -0.29853544191832
