23
Coordinates from ORCA-job 4216optt
  Br  1.64321918694256     -0.09804430252648      1.46537686155017
  C   3.25958968112607      0.04763207377761      0.46167346644264
  C   3.97853183420797     -1.12840180783649      0.20862904755117
  C   4.08477467499291     -2.37932054078213      0.91542539185773
  C   5.22983482856879     -3.06517818403788      0.60498451402766
  C   5.91188932772369     -2.36541470605203     -0.54643551799133
  N   7.34242955924234     -1.94879368571957     -0.57725305148259
  C   7.73287605581300     -1.03232380845588      0.49064257191359
  C   9.11562398673713     -1.08218271207246      0.89062204055322
  C   10.26915442080044     -1.09398458147136      1.22193617551203
  C   7.33480718740440     -0.49875714757365     -0.86239079182702
  C   5.92214035068241     -0.02559057172001     -0.89320912781168
  S   5.32133734661149      1.59367200461573     -0.65388574863160
  C   3.64152592649008      1.35074548692754      0.06677282140959
  N   2.95267481093794      2.42952614315141      0.23375791344755
  C   5.14570257442467     -1.07892052748323     -0.59551534952436
  H   3.35720285770894     -2.69983247323551      1.65071711364931
  H   5.47550421711189     -4.06151614252171      0.94336216336938
  H   5.77331467005376     -2.95619269314997     -1.46071872943928
  H   7.01518100545369     -0.84875956382403      1.28446529267662
  H   11.29105111982797     -1.10761341836188      1.51198867882164
  H   8.11007385643786     -0.12746870068390     -1.52120011638615
  H   3.45556052069988      3.24871985903590     -0.09674561968829
