29
Coordinates from ORCA-job 4218optt
  Br  1.47009057842653     -0.61122666893059     -0.11091458313010
  C   3.26336234341534      0.13539504875137      0.00142501886431
  C   3.46229393501320      1.52203447157548      0.01934297762150
  C   2.44328581748234      2.36882068153554      0.76661764906476
  C   2.90128737663595      3.78419143317475      1.14725783486634
  C   3.66688545201117      4.34857788633527     -0.02159277402117
  N   4.13703001481365      5.74070850492411      0.05206024907402
  C   5.20120212560412      5.80890861064813     -0.94271104339584
  C   6.59982196924252      5.42912511795529     -0.55539650381692
  C   5.71588147903478      4.41154033723058     -1.21371951323181
  C   4.92227760297868      3.51315389256059     -0.27588526049866
  C   4.55430933117725      2.11108227046654     -0.68334680065593
  N   5.30928377337115      1.55601953186724     -1.60297975970146
  N   4.92884213811819      0.26608971270104     -1.97306392492972
  S   4.52424466809429     -0.77894801269747     -0.71022714729141
  O   4.09073337532308     -2.00484419685500     -1.32620488585186
  O   5.63270174014916     -0.85525987554038      0.20826672342969
  H   2.12284146164993      1.82537106592414      1.65762706582620
  H   1.54833845427892      2.45564230095988      0.13753327665855
  H   3.55874401718588      3.75037632632971      2.02346564009370
  H   2.03678444311347      4.40187862632726      1.40274869703301
  H   3.03845902648938      4.28102189911213     -0.91808563933283
  H   4.51189078747743      5.92104713693630      0.97905548915169
  H   5.06281784215783      6.52293155912801     -1.74416142570869
  H   6.81419635205572      5.29848613440588      0.49921758019047
  H   7.40857271530895      5.85757263643068     -1.13367485527783
  H   5.94497828665155      4.06176840940431     -2.20901660485356
  H   5.46208524555792      3.44320374603735      0.67849600192558
  H   5.65375764718144     -0.14966858669825     -2.54913348210203
