29
Coordinates from ORCA-job 4225optt
  Br  1.47207940658873      0.39643929066155     -0.63743698239459
  C   3.31070959884247      0.11901748863326     -0.20930810625033
  C   3.81607852474924     -1.14677101330538     -0.07016467444591
  C   3.09336796537210     -2.44257864832562     -0.35922717014154
  C   4.04052305482134     -3.50156541596149      0.22315501212426
  C   5.43467132174411     -2.87053118654546      0.16729802321823
  N   6.35258714235879     -3.42661896785402      1.17506251124340
  C   7.72935985937620     -3.30126884199281      0.67287844153045
  C   7.63666322537608     -2.87672436467268     -0.81163681175191
  C   6.18000295780762     -3.16455349481965     -1.17762858733099
  C   5.68620284151761     -2.34269421231335     -2.33069335154880
  O   5.15996295892930     -2.81170011060234     -3.30898800376017
  C   5.13379211427542     -1.39484939142914      0.32839547241729
  C   6.07975752660105     -0.42257922938331      0.70315643027270
  C   5.86758675632032      0.95999930828010      0.70782848196846
  O   6.62284534921653      1.86207227074898      1.04945455649478
  S   4.21815433076980      1.57735192234512      0.09917072277962
  H   2.95563721086158     -2.58076932625158     -1.43663018750120
  H   2.10173865091190     -2.47165972284558      0.09481608493710
  H   3.99820579125514     -4.45674891913877     -0.30679514882763
  H   3.79898640525498     -3.67346071169259      1.27487964662404
  H   6.12653908938583     -4.40655565339644      1.29500226241510
  H   8.25449514487027     -4.25215967938728      0.78313680709876
  H   8.27968152979075     -2.55645850385440      1.24958728819177
  H   8.33978965614909     -3.41657309053588     -1.44650777924377
  H   7.83665191704602     -1.80856837343781     -0.91213605329589
  H   6.04305913358044     -4.21978020390634     -1.43169600736365
  H   5.82996991033414     -1.25066946819141     -2.22994401663956
  H   7.04690062589283     -0.72204175082557      1.08897113918000
