26
Coordinates from ORCA-job 4226optt
  Br  1.37069450122769     -1.48848162960241      0.15655441991562
  C   2.86088086782103     -0.34441633350251     -0.17297064468431
  C   2.64433052617802      1.00193721664743     -0.57259444214460
  C   1.28541089707240      1.48387384696285     -1.03511835987308
  C   0.30502109585587      2.05631826344193      0.02969885917789
  C   0.67010427323868      3.49038131933753      0.50565451412445
  N   2.10204230471883      3.41467415208077      0.74348080689002
  C   2.66703301007457      3.76165827171075     -0.33514101211279
  C   1.88075638630699      4.65999178883758     -1.25847520868228
  C   0.49840506129119      4.48476881053859     -0.63928481354371
  O   -0.52098597580145      5.01617278313896     -0.98740347823800
  O   3.79486734533485      3.19458901125882     -0.77601547113029
  C   3.82143651563845      1.79780885414604     -0.51154892121954
  C   5.03577031546128      1.28156021523263     -0.23215151866887
  O   5.22666428332648     -0.07281466208393     -0.09873616807924
  C   4.12238107847931     -0.90549836275274      0.13332056193659
  N   4.36399601632134     -2.09911060373696      0.55463671592474
  H   0.77506647356737      0.63427549458146     -1.48984332567285
  H   1.39833455424768      2.20790178439747     -1.84990918948315
  H   0.32397656064424      1.39963732834237      0.90022594188147
  H   -0.71401856593107      2.06447674447601     -0.36825993122288
  H   0.07949751799664      3.78060987664847      1.37461182616472
  H   1.89655525976427      4.35590150063349     -2.30495521547470
  H   2.20828402653421      5.69986217387415     -1.19711561607714
  H   5.93406300736207      1.86760614226789     -0.12449552792154
  H   5.36843266326903     -2.19668398687668      0.67583519821347
