26
Coordinates from ORCA-job 4228optt
  Br  1.06635152031750      0.26259446968529     -0.45564227346945
  C   2.95407839133354      0.12861424418047     -0.30097958711515
  C   3.62258179415212     -1.05254752432487     -0.68629065740093
  C   5.06584449047758     -1.07557567361363     -0.51586769211024
  C   5.77175015940723     -2.41771185858886     -0.35999050051621
  C   4.89677239316049     -3.18857280380500      0.59790442400017
  N   4.55059527000771     -2.81307937284775      1.75593547713530
  C   3.30363334085341     -3.53812777060136      2.03826702543664
  C   2.88733624423456     -4.05684063839725      0.65027964424569
  C   2.04578482028977     -3.05205579255286     -0.20832950587784
  C   2.98636081068964     -2.28175861369053     -1.14299352845470
  O   3.38495403091848     -2.86267906221026     -2.15974926614958
  O   4.17976365765280     -4.21553906764416      0.04437447451993
  C   5.69528720592086      0.04430430725502     -0.11105544021804
  N   5.01305363108193      1.22918105262409      0.04779736045432
  C   3.61243752165727      1.33800020731700      0.05004560933216
  O   3.11723680053467      2.43545835424338      0.31858468428285
  H   6.77128106538647     -2.26168763072679      0.04510966506530
  H   5.82422919609909     -2.97253534025690     -1.29565706506497
  H   2.57418137378983     -2.85112982036361      2.46741863826367
  H   3.47685680889647     -4.35452053989744      2.74798803230718
  H   2.41274204845670     -5.03579605201995      0.68415814484624
  H   1.48404101281804     -2.39404003836492      0.45378273491221
  H   1.34458531010148     -3.61525571287137     -0.82665396025161
  H   6.73930047280671      0.05241717017153      0.17448504149745
  H   5.48396062895556      2.05988350730079      0.36407852032961
