23
Coordinates from ORCA-job 4230optt
  Br  0.98559224677644     -0.11733441996213     -0.02473292874723
  C   2.87341287239452      0.02974681430319     -0.01361427705315
  C   3.49226645374493      1.30188388060399     -0.00982147704001
  C   3.23181199811183      2.68650240104746     -0.00982384738430
  C   4.46240742739281      3.37478621211995     -0.00454620778180
  C   5.49498148161597      2.40134869781206     -0.00134257581656
  N   6.83286335454510      2.18045565158067      0.00320374929611
  C   6.98023482998562      0.83384877022594      0.00309204059368
  C   5.73950143687084      0.16394542887642     -0.00160784398597
  N   4.85567489430263      1.20861427410285     -0.00436537989849
  C   5.09893964136828     -1.09704510491210     -0.00408243972208
  C   3.66336631659422     -1.09363794479091     -0.01030632813883
  N   3.23587483459300     -2.41572228977672     -0.01254389630989
  C   4.30655914887796     -3.29377850492970     -0.00695476802130
  N   4.29700409302075     -4.57017805594948     -0.00575349343031
  C   5.54904857132071     -2.44705002712588     -0.00206873557105
  N   6.76531410945837     -2.89624523536809      0.00316189360765
  H   2.24988808683169      3.13133918450871     -0.01309147299387
  H   4.59043915614513      4.44437527760592     -0.00291666746988
  H   7.95239896091119      0.36894308429042      0.00646140312176
  H   2.26754649804978     -2.68554496043989     -0.01471021533197
  H   3.34723582328330     -4.93655610950368     -0.00964997596326
  H   6.71963776380490     -3.91669702431900      0.00301344404078
