27
Coordinates from ORCA-job 4233opt
  Br  0.98894106842192     -0.50455221021761      0.82061267856769
  C   2.55287380221084      0.25205753494026      0.03596075720329
  C   2.43565368156170      0.88827424837743     -1.13624667967464
  C   1.15353975082459      1.21439285771613     -1.86594307623963
  C   0.19928252865898      2.25565147677267     -1.18154367354063
  C   0.88271645986234      3.10310149152099     -0.16126832808713
  N   0.56804990593713      3.21065952690884      1.10076170594266
  C   1.66027091650362      3.78539638007990      1.71890535519845
  C   2.65356167051646      4.00429331658198      0.80209011376142
  N   2.11199941755519      3.65283815375547     -0.40227444038460
  N   3.99912620258039      4.36811779976721      0.89312105329007
  C   4.90808797329124      3.61693603948566     -0.02259422081293
  C   4.62170890764847      2.14545154888994     -0.19487843157536
  S   3.97659729900723      1.54471583398173     -1.75925145632169
  N   4.50507868526168      1.39032284134803      0.87351322252335
  C   3.77050580863565      0.23716914272259      0.89221524974758
  N   3.96457776229762     -0.75532607259295      1.71060520116063
  H   0.58766428806518      0.29125704428449     -2.00774359501075
  H   1.42108685964068      1.57753533190692     -2.85921696876869
  H   -0.59362777474438      1.73498191792007     -0.64771483909505
  H   -0.26953483147028      2.85634432457658     -1.96612661214346
  H   1.69653308224928      3.94253879054090      2.78393589331541
  H   2.64766256857762      3.50404190713364     -1.24490071628475
  H   4.29843705192941      4.22130150543792      1.84792278085817
  H   5.90820810381013      3.75297885622166      0.39563811510324
  H   4.89547836527317      4.10975201382563     -0.99722744576102
  H   4.79952044589397     -0.53723160188628      2.25364835702839
