22
Coordinates from ORCA-job 4238optt
  Br  1.23527777104916      0.22299939303456     -0.77030611710799
  C   2.96846038851487      0.00307684565993      0.04994830293297
  C   3.64803517130862     -1.23884952517094     -0.01006600806390
  C   2.98585745441252     -2.50742564550766      0.00046740712999
  C   3.68697188277269     -3.67591495014263     -0.00355084015102
  C   5.10388566144234     -3.64127403474477     -0.02076435062254
  N   5.95942029962231     -4.66623840172531     -0.04813185722966
  C   7.19677103813910     -4.08759940597149     -0.08010429434513
  C   8.36521269711854     -4.95323444447341     -0.12925760595523
  O   9.52366920679010     -4.59483456208140     -0.17931695788847
  C   7.16737648593177     -2.69253644576460     -0.07153483771334
  C   5.79673573338088     -2.37655798364759     -0.03154522340116
  C   5.04209354978040     -1.20508201310294     -0.03119002532725
  O   5.74029482389513     -0.00612350400558     -0.06583312402424
  C   5.12177812517180      1.18510075129126     -0.05199881914488
  O   5.75009296436663      2.21237177116399     -0.05329228092731
  N   3.75351767684837      1.15085050775264     -0.02219860752810
  H   1.90371793441035     -2.50986983102630      0.01194947727455
  H   3.17855503277571     -4.63227951243337      0.00142681599425
  H   8.10938940784289     -6.03099163099026     -0.12114252043472
  H   8.01341055135546     -2.02636685370029     -0.09555960321115
  H   3.31947614307020      2.05577947558622      0.06500106974432
