26
Coordinates from ORCA-job 4242optt
  Br  1.23135717746252     -0.84856440817945     -0.19208760002562
  C   2.90571426668725      0.06994721609221     -0.41169488390871
  C   3.02007305155330      1.40287161748130      0.07393978500568
  C   1.95575882012561      1.94865825538700      1.02359206464136
  C   0.61869324347800      2.58733738380123      0.52739332128811
  C   0.74319143492747      3.93493215957477     -0.26455532095062
  N   1.98055416361291      4.54154367830893      0.24296775987805
  C   2.86270560730864      4.03536186168061     -0.52629013687277
  N   2.40486208470161      3.60913360631585     -1.77608362943877
  C   1.02045242399983      3.57659562909987     -1.70815353541189
  N   0.16081271212639      3.26504087680955     -2.58310504619827
  N   4.14099302770742      3.63155653005361     -0.17409078361548
  C   4.16750076511674      2.16424189023055     -0.30361132813417
  C   5.25854489872639      1.67087502582281     -0.95877662867896
  S   5.53832286237085     -0.02136990812306     -1.22011448315494
  C   3.86216660038725     -0.74118001930998     -1.05035411284619
  O   3.75601552370040     -1.88536213402866     -1.47428237720745
  H   2.42651704743925      2.67115681859479      1.68899360241832
  H   1.64592999588212      1.11197361796329      1.65166595463652
  H   0.04135190998058      2.79523460553963      1.43119541231649
  H   0.04601663384635      1.87717811778103     -0.07065115398426
  H   -0.14949998005759      4.54494146959545     -0.15095518920093
  H   2.94665838144368      2.96874778811518     -2.33937991254729
  H   0.60340289411666      2.98339377167026     -3.45662829596463
  H   4.32357560721535      3.93253768379748      0.77667977962592
  H   6.00932884614097      2.35021686592570     -1.33661326166948
