25
Coordinates from ORCA-job 4243optt
  Br  1.56331971270386     -1.43748589434376      0.69386250292650
  C   3.00114723233069     -0.34104288044214      0.11520182274036
  C   2.76888567233785      0.95982232139314     -0.42688228790695
  C   1.37789317264620      1.37106017694414     -0.87633565870770
  C   0.43240982832177      2.09936771972486      0.12207089972230
  C   0.78461684470667      3.59432689137964      0.35458576680818
  N   2.21332767961444      3.53943966742798      0.65334450584848
  C   2.75121489941634      3.68941261204582     -0.47931880506531
  N   1.97453834509682      4.35266965527062     -1.44678232658079
  C   0.66879706276968      4.33670422471068     -0.96720974021383
  N   -0.40098047747920      4.75489454230922     -1.50263015362918
  O   3.86982602287311      3.11593094090461     -0.90455867528700
  C   3.93622918327052      1.74419914181547     -0.51614081690518
  N   5.15907398569615      1.37932411635057     -0.29295543526968
  N   5.30935871206582      0.02824850604585     -0.08405524543433
  C   4.29938531611553     -0.85079570668422      0.34539539533873
  O   4.63716737414738     -1.94064382228041      0.81713466248660
  H   0.86181649476169      0.45265909501730     -1.15640595780840
  H   1.43638140499482      1.94942636890274     -1.80317090147196
  H   0.49243411926521      1.59238920968403      1.08629987768799
  H   -0.59577800155028      2.03326665689378     -0.24270885093878
  H   0.17184061739835      4.03566792692809      1.13707854211843
  H   2.19982551139720      4.29032042426868     -2.42724027830993
  H   -0.22454954243726      5.16393406770076     -2.41940324837281
  H   6.22581882953660     -0.22609596196748      0.24682440622427
