27
Coordinates from ORCA-job 4245optt
  Br  1.11149993152984      0.54799309207389      0.72273807643717
  C   3.19760068065276      0.14605164511776     -0.34947741919437
  C   3.64209272783006     -1.16207620443112     -0.33939895407143
  C   2.92440519973036     -2.46374497277431     -0.54266170731439
  C   3.92973887864244     -3.49945534347833      0.00798349912287
  C   5.31567713751053     -2.83686227843331     -0.05013542962041
  N   6.25338488902172     -3.23592282680416      0.98669285310718
  C   7.56811683836117     -3.30562884519092      0.57009364295292
  N   8.61730816610987     -3.46730000381081      1.26625454050538
  C   7.57857682947700     -3.18811056743225     -0.93233257640985
  C   6.11568450311935     -3.16870595828752     -1.31186161977874
  O   5.64503246890909     -3.38910351780918     -2.39178416930775
  C   4.98880657783946     -1.34347992239694     -0.04762948038510
  N   5.90246702477854     -0.44359441244743      0.22086146145119
  C   5.47433898532470      0.86583611963488      0.22955990629562
  N   6.18890248951892      1.90054785631221      0.48691772466829
  N   4.11615965323121      1.08607653965778     -0.08183887572927
  H   2.72364135844592     -2.65210276351720     -1.59986324154753
  H   1.97147093543479     -2.48729970589522     -0.01184831309931
  H   3.91633189986460     -4.44338682431579     -0.53669583373657
  H   3.71055950006631     -3.70641348698950      1.05758832007259
  H   6.07939092398902     -2.89642769357458      1.92214554709996
  H   8.39298736072161     -3.50837060662109      2.26007711840646
  H   8.13861452453660     -3.97603543115729     -1.43013920920376
  H   8.00988419427237     -2.21893289064984     -1.19788319552049
  H   7.13389456799310      1.58702708449040      0.68749595545479
  H   3.83343175308845      2.05542191872992     -0.04185862065545
