22
Coordinates from ORCA-job 4247optt
  Br  1.44085342121577      0.34102152736992      1.02419763966793
  C   3.26571461774144      0.07994112660416      0.68287038209259
  C   3.80570155228367     -1.16583380097364      0.50804982373693
  C   3.27479312277342     -2.46991679984817      0.51445040284006
  C   4.26421874469598     -3.31910832817574      0.03862999463412
  C   5.43542480653515     -2.59030121841430     -0.25278450556048
  N   6.49521598044615     -3.05444051996689     -0.90263997933737
  C   7.77310854979105     -2.65168316679343     -0.79090362627371
  N   8.73122268861076     -2.89629633085704     -1.61852746274856
  C   8.25041448121827     -2.01691349906352      0.48510071781563
  N   8.03916728214993     -0.84317303335556      0.90593189794859
  C   7.21236154402483      0.05761129598639      0.26467771637796
  C   5.90615995366851     -0.09183004135759     -0.01724577044672
  N   5.14738240832782     -1.25991126336083      0.11538583713277
  C   5.15570620565791      1.16191565221119     -0.28643345661172
  O   5.62924522771127      2.15599012695174     -0.76647084963508
  O   3.86708993776644      1.19471848265051      0.13205897667818
  H   2.25751033318794     -2.71031047060550      0.77396352486599
  H   4.18711154171340     -4.37726366754869     -0.14783578369111
  H   8.33086977898036     -3.35052373599490     -2.44051226567219
  H   8.89519518025948     -2.65074805168339      1.09332593084232
  H   7.62653264124035      1.04705571622530      0.11771085534387
