23
Coordinates from ORCA-job 4251optt
  Br  1.07915359783079      0.21482052021878      0.63828269087305
  C   2.95997433682392      0.17092346144058      0.41558853325193
  C   3.58308339462111     -1.04822874156890      0.19850146549032
  C   3.10578352971165     -2.35838534854390      0.09200793254593
  C   4.18755902494445     -3.17879000845020     -0.15438177247292
  C   5.37603684538363     -2.40373684776599     -0.20776871987233
  N   6.56067794058927     -2.94124171607450     -0.44827891412700
  C   7.77168726069725     -2.35279644547844     -0.50003488939283
  N   8.86142968704575     -3.00559027135045     -0.76306252087288
  N   7.99648619572049     -0.99180822293389     -0.26696718996221
  C   7.13335774012650      0.05811144344559     -0.07013627585185
  C   5.78913134083352      0.07171640542718      0.06928708865965
  N   4.98235144938725     -1.09159109817542      0.01758973585927
  C   5.06667391696120      1.30889175689643      0.29498042588681
  C   3.69031430781914      1.34885603270908      0.46316916497304
  C   5.78554536222383      2.52986108869284      0.34940116858122
  N   6.37186958236037      3.52288311941939      0.39150163111003
  H   2.06825179780979     -2.63275551773885      0.18706376730870
  H   4.19788348740451     -4.24658985750319     -0.29655553401028
  H   8.59732822865194     -3.97618469659208     -0.90553562838331
  H   8.97005397731046     -0.76248951973999     -0.37214363878154
  H   7.63386976161674      1.01381852878125     -0.00667062222686
  H   3.19849723412633      2.29630593488470      0.62916210141406
