28
Coordinates from ORCA-job 4256optt
  Br  1.10858628216847      0.25506446002942      0.01056436304993
  C   3.00780398617171      0.08265822425231     -0.05227689491276
  C   3.57957156800725     -1.19992828165581     -0.23751718645065
  C   2.94155115946247     -2.55265002530391     -0.09673154514852
  C   3.83073198408579     -3.44785440787619      0.78669794849136
  C   5.25211948954457     -3.66481360428476      0.23857818819055
  N   5.24972456676676     -4.67719710995791     -0.83147120073955
  C   5.67011528187742     -4.09079757192722     -1.86691928605752
  O   6.03649773435886     -2.80753337218795     -1.81518333578783
  C   5.85199346634072     -2.38636773189568     -0.40559861562552
  C   7.18369386027545     -1.82101359556738      0.12133681574815
  N   7.13499734776303     -0.35062392918562     -0.04801177632751
  C   5.73756902960498     -0.09184046132009     -0.14411223404217
  N   5.18962126142963      1.18007203145742     -0.08912913144754
  C   3.74275431043092      1.29479920751971      0.02047101152224
  N   3.22862396178979      2.47923578132981      0.18451626649224
  C   4.97687839737255     -1.19991449886384     -0.30443322496164
  H   2.79112469658776     -3.04581133895569     -1.06735127450562
  H   1.95424578116060     -2.46380705007354      0.35822645086962
  H   3.38231168726018     -4.43576225444650      0.92150115066551
  H   3.90917996224362     -2.97582958990504      1.76975223765930
  H   5.89148735121602     -4.02765694553617      1.04908814197323
  H   5.76741747487585     -4.55651128972796     -2.84214344824566
  H   8.04719380522826     -2.24961292693194     -0.38859906767958
  H   7.25170621816626     -2.04181853184899      1.19003372394684
  H   7.62319859502735     -0.07527049103941     -0.90111151602964
  H   5.66516336555125      1.81940241652787      0.53864716895789
  H   3.96813737523239      3.17638288737512      0.14217627039485
