27
Coordinates from ORCA-job 4257optt
  Br  10.92630706269154     -8.16775680330293     -3.73034059732040
  C   10.64723380785584     -6.44067743335222     -2.83508317979508
  C   9.42480021776609     -5.83295361903608     -2.94096624370248
  C   8.19922627294166     -6.41361233843910     -3.58120017582380
  C   7.10796345991444     -6.63929723390005     -2.52081755079290
  C   6.13679599666115     -5.47514637956247     -2.32217453844992
  N   5.33068041580451     -5.75587783015141     -1.11540034043050
  C   5.76007049222780     -4.96916800042639     -0.23173049953953
  O   6.68366340886025     -4.03623010299706     -0.56441163323078
  C   6.73379729933147     -4.07328935021459     -2.00338131157695
  C   8.13288073898235     -3.67589380702040     -2.52352170335368
  C   9.26408802586609     -4.58973396632570     -2.21766783533533
  C   10.38213897047146     -4.16031330756160     -1.45900652451415
  C   11.53889933137480     -4.88653908831429     -1.45054121912007
  N   11.72548930470509     -6.04602427128761     -2.16748345666274
  C   5.76451877427229     -3.04733997658141     -2.47649330947848
  N   5.04751799676009     -2.25105873058826     -2.88631119877391
  H   8.43558287262969     -7.35574442036997     -4.06849322702875
  H   7.81206890078537     -5.74628267129290     -4.36209912088376
  H   7.58728180965756     -6.86764173688535     -1.56744497705772
  H   6.48588402724985     -7.49919509901232     -2.77990818131789
  H   5.48619135269289     -5.39881531359016     -3.19428951129576
  H   5.46349444461224     -4.96170603156405      0.80936382510638
  H   8.33192381976048     -2.68813653645503     -2.09849942546615
  H   8.00044811169100     -3.51525755568987     -3.60635929528214
  H   10.32710259415328     -3.24340134531200     -0.87996863568941
  H   12.38895049028056     -4.56390705076669     -0.85877013318406
