28
Coordinates from ORCA-job 4260optt
  Br  1.07564475692355     -0.30145131908095     -0.30350861513256
  C   3.01878187865716     -0.24007898438746      0.42266169837529
  C   3.71954115058096     -1.44343233784026      0.48102645670087
  C   3.07565213411354     -2.73883896922490      0.88101991656462
  C   3.15623972557050     -3.78083604737643     -0.24081173689409
  C   4.46569057481350     -4.57106849089077     -0.28985160942663
  N   4.57010797498692     -5.34630154687181     -1.53212039296622
  C   5.19657168876668     -4.56072645498242     -2.50504178106208
  O   5.17560998886597     -4.76234827181498     -3.70065096231737
  N   5.82803532232191     -3.55592893018482     -1.83338647375002
  C   5.78223094505800     -3.77506951673096     -0.39985025599550
  C   5.97888522031358     -2.52738133243055      0.44790347165509
  C   5.06991495757824     -1.36395927699812      0.15124030130405
  N   5.65675130446536     -0.30539352765414     -0.40539176893185
  C   4.89445352883804      0.79910836496468     -0.62342032152793
  N   5.20265548524179      1.83683782095162     -1.29581909043687
  O   3.64331923153021      0.87090379942218      0.00596652142614
  H   2.03114605819696     -2.54512823266649      1.12067376457930
  H   3.53319781705467     -3.14769829649369      1.79215487021994
  H   3.00288883390513     -3.27470479721157     -1.19714011760293
  H   2.35217785851508     -4.51723698901625     -0.13422601071443
  H   4.52277575145455     -5.23039324185249      0.57994007305585
  H   3.74471140271620     -5.81932934432868     -1.87084654851570
  H   6.42973645158624     -2.89618122231981     -2.29511414342710
  H   6.58003883323216     -4.47836878521940     -0.11964935465153
  H   7.00447380447896     -2.18059805030953      0.30948076581391
  H   5.87561888953711     -2.83035670902908      1.49538881950217
  H   6.14014843069685      1.68296068957720     -1.65762747584439
