21
Coordinates from ORCA-job 4262optt
  Br  1.03469806353581     -0.19480856599617      0.05994170456348
  C   2.91550577419823     -0.06025783437171      0.03414930100913
  C   3.52900565600706      1.19005833330172      0.02884572113037
  C   2.89305225404718      2.43929353295594      0.03271484727755
  C   3.60859661052275      3.62753737943160      0.02896161735565
  C   5.00972572180590      3.64481074567725      0.02455452267867
  N   5.71622476051870      4.76569443543238      0.02485471825228
  C   7.06441880220115      4.68792646969489      0.02195183232332
  O   7.82273468080823      5.63363179141326      0.01799652988455
  N   7.69927717307221      3.36959282533453      0.02500149960955
  N   7.01163719855527      2.33920307620002      0.02388831383854
  N   5.65923457615321      2.41863931549354      0.02072651298728
  C   4.98315102090544      1.17230072587621      0.01772019404940
  C   5.64642227000447      0.00867721186765      0.00582257048193
  O   5.01332573200118     -1.19481551362863      0.00504511278760
  C   3.63213131136345     -1.29971805779204      0.02127019411989
  N   3.11202268863879     -2.46448154922310      0.02249901627966
  H   1.81263250237790      2.46518395698361      0.03820650939721
  H   3.12127635280622      4.59092533037221      0.03101506330671
  H   6.71847158808289     -0.08316214449397     -0.00345344346391
  H   3.85345526239387     -3.16023146452921      0.01128766213114
