27
Coordinates from ORCA-job 4265optt
  Br  0.71738133162067      0.06185250187345     -1.14510232799604
  C   2.86698583430562     -0.22175974461299      0.05659723855397
  C   3.57898728865561     -1.39263916932279      0.01209942451070
  C   3.12321028070982     -2.82441613930028     -0.03088183880480
  C   2.46953267166546     -3.23631370233257      1.29897419896052
  C   2.04435402437844     -4.66337630788239      1.31957321106002
  N   2.48169330960963     -5.53165163279256      2.21301311251584
  N   1.86629163370670     -6.67345010249576      1.85012736654428
  C   1.10040853464636     -6.45878021942548      0.77011019294067
  N   1.18528535160041     -5.20604656543664      0.40381790704271
  C   4.44367669786156     -3.58224995634596     -0.31830504521055
  C   5.57838904748196     -2.66623720985702      0.17536157552011
  C   4.97324327856070     -1.28341189131650      0.10483841957826
  N   5.68306087876371     -0.18052854366731      0.16139392732158
  C   4.99614718808698      1.00396272194348      0.13387550463628
  O   5.50247451558924      2.11462506835522      0.15106321717277
  N   3.58400116251343      0.90824436694708      0.10026323832347
  H   2.38991799592161     -2.98739975298469     -0.82258590942613
  H   1.59983070216841     -2.59289075228844      1.45359041900740
  H   3.16282411202920     -3.07173919759079      2.12648058133467
  H   2.01623214509385     -7.51929927879866      2.37079056593524
  H   0.51380937028489     -7.23107127824669      0.29812323014371
  H   4.54131986875545     -3.72523999133882     -1.39548192166484
  H   4.46321820423515     -4.56863304306566      0.14905655087750
  H   6.49326808622546     -2.73638384748129     -0.41243723149605
  H   5.84475251933941     -2.87391272645162      1.21646106134580
  H   3.10270396618993      1.79774639391592      0.08618333127285
