25
Coordinates from ORCA-job 4268optt
  Br  1.30030970725045     -0.47004584065287      1.34804592880947
  C   2.79606645477549     -0.18506878313186      0.08300044058704
  C   3.46766073925914      1.04447130415369      0.06600815455364
  C   3.00401638491850      2.40518898046007      0.14913311737977
  C   1.58340235833996      2.88282430363286      0.23816471290653
  C   0.85600966827599      2.79853569152541     -1.07051331654313
  N   0.22860241721196      3.82791206235981     -1.56583072378369
  O   -0.31527639226464      3.41534261345189     -2.76924931801814
  C   0.00742236033931      2.13031603107396     -2.96041297107364
  C   0.74553100364512      1.66525785061631     -1.93532200303279
  C   4.10593642324467      3.22738205577440      0.02068186250564
  C   5.28418768358565      2.43787477978257     -0.13882019475983
  C   4.88470606954804      1.11937359319407     -0.11013600472147
  N   5.72131917175205     -0.00643110832993     -0.14373181950258
  C   5.35860830865783     -1.31228002090021     -0.20889050614170
  N   6.13647037299466     -2.33017692166590     -0.26429464192206
  S   3.62076218593881     -1.67243750032251     -0.29940754216706
  H   1.56825109520269      3.92659986615829      0.55597981588116
  H   1.02002355289992      2.30498083847860      0.97456040692825
  H   -0.35643455894335      1.68723967904447     -3.87313072736839
  H   1.17777817904355      0.69060458826644     -1.78267494721173
  H   4.07002979787648      4.30856456804644      0.01663066303161
  H   6.29802642380071      2.79924815980866     -0.23767995942617
  H   6.71377137784070      0.16917009212599     -0.11201806461232
  H   7.11281921480622     -2.03744688295069     -0.29209236229838
