26
Coordinates from ORCA-job 4271optt
  Br  1.08705416337955     -0.05792670233881     -0.59154752925049
  C   2.94602095258899     -0.17401223199400     -0.30605273164054
  C   3.58578234417246     -1.34169110938457     -0.17913523389856
  C   3.13459552220144     -2.77699151452051     -0.14442968647609
  C   2.45765374581403     -3.14309035110361      1.19289515341028
  C   2.01374631213736     -4.56673298765500      1.20686003375917
  N   0.85625142919501     -4.93685079901200      0.68347011523369
  O   0.89174734358196     -6.32745423873882      0.82882914985055
  N   2.13427657113403     -6.69622432533425      1.44784976741979
  N   2.77769245243283     -5.55554168019806      1.65657398179864
  C   4.47130501242549     -3.52777022751927     -0.31548704527944
  N   5.46594346514321     -2.55287632491174      0.15388385081121
  C   5.01283767306029     -1.27695964895024      0.03954391570886
  C   5.69089181694214     -0.09496278727683      0.11200050399099
  C   4.98097564633224      1.15010380820860     -0.02753201584433
  N   5.43247576911563      2.35644415258223      0.00860170654599
  N   3.60534389907556      1.01891187986197     -0.24346266698687
  H   2.44314927172112     -3.01658465838168     -0.95273490418143
  H   1.59936872584461     -2.48540500723119      1.34159666071225
  H   3.16828217752598     -2.97447563753154      2.00541757322799
  H   4.65178757749857     -3.77766497597279     -1.36562735670998
  H   4.48562031528406     -4.43759292352405      0.28448317185199
  H   6.44973261712228     -2.75676823365610      0.12049372084495
  H   6.76003848476029     -0.05539743526700      0.26883808439426
  H   6.43401715234088      2.34377504426447      0.17004225597631
  H   3.10040955916992      1.88473891558483     -0.35037047526921
