23
Coordinates from ORCA-job 4275optt
  Br  1.33575449396676     -0.23667345941630     -1.30312466298132
  C   3.00147893734844     -0.17086602274316     -0.39745898123373
  C   3.55766778890448     -1.30201962052349      0.14920241162606
  C   4.92477123349451     -1.15967117024530      0.63085273412494
  C   5.79441972916230     -2.43118888222122      0.89801431525303
  C   4.80560071994463     -3.46186372102695      0.35375463779567
  O   3.73691692459346     -3.23114818719941      1.30014783987863
  C   2.82068233372480     -2.67727137124980      0.38987828208338
  C   1.51183060391038     -2.49144872140135      1.00689207107175
  C   0.44190231341540     -2.37633230937219      1.53280489012931
  C   2.80834983078077     -3.90751628990572     -0.68595208145495
  O   1.82445290035857     -4.22245475261412     -1.36057917538055
  C   4.09675148993418     -4.61165383637239     -0.50064031105206
  O   4.52436652246705     -5.63785072375144     -1.00466364082929
  N   5.54285517167172      0.00199875054222      0.67690059464601
  C   4.90618700440584      1.09527662788811      0.23685436554616
  C   3.66068074191995      1.05982589662906     -0.34129889896064
  H   6.03077403741199     -2.54563784544353      1.95588597743584
  H   6.71548043415339     -2.31961141941272      0.32492546671304
  H   4.62908769330204     -2.84652912586633     -0.53672854833975
  H   -0.51565615972657     -2.27727784976815      1.98218326111602
  H   5.44502816058432      2.03291797403847      0.32090994529073
  H   3.20161709427152      1.95099605943574     -0.74476049247829
