25
Coordinates from ORCA-job 4278optt
  Br  1.05495698151422     -0.03435551643948     -0.91221833873765
  C   2.87450801997523     -0.05928193529837     -0.35189810357913
  C   3.55497908025447      1.09871803502993     -0.08396905904998
  C   3.05286360067508      2.52304817901473     -0.12142828138962
  C   4.35075352739505      3.35696832933103     -0.18194459930986
  C   5.43856848525758      2.46644411945356      0.42199340295180
  O   6.66633438234229      2.59614419529672     -0.31894948694861
  C   7.65991779066805      1.72020675182195      0.07738916927592
  O   8.38905324817646      2.28572564043368      1.19448296598225
  C   8.13822797199100      1.47112401226734      2.24973792385036
  N   7.50745846568323      0.40056650646702      2.07640129701538
  C   7.21316459162129      0.32415838271161      0.61717689411330
  C   5.78784840307701     -0.00089916831016      0.30343613117791
  C   4.90074035608321      1.08593383962096      0.25960884129424
  C   5.42217615529332     -1.32544237082822      0.03812144901870
  O   6.10905393433193     -2.33847179631148      0.00511714375902
  S   3.61698109683495     -1.64261474666596     -0.31917007214540
  H   2.47246219504597      2.75290442283863      0.77805988661046
  H   2.39866394717572      2.70930924872638     -0.97473702101599
  H   4.26356518688462      4.32382814833662      0.31557743216450
  H   4.62764402250432      3.53442750627895     -1.22251152872216
  H   5.65677338568314      2.73046325934497      1.46739511473345
  H   8.35606028912015      1.65348535620639     -0.75528434792689
  H   8.52129478015999      1.83374407204998      3.19714227558135
  H   7.85895010225164     -0.45613447137681      0.21047091129666
