23
Coordinates from ORCA-job 4280optt
  Br  0.96542742394939     -0.63236488696471      1.04711150428389
  C   2.85721881595447     -0.60843945523341      0.79534563831044
  C   3.51179911801460      0.62368614416607      0.61659062161553
  C   3.01610017541055      1.98059383076481      0.12852363802763
  C   4.28462262906873      2.60628374457136     -0.55699993663235
  C   5.44988054711135      1.99988143460999      0.22741393752463
  O   6.64143203707285      1.66726917249570     -0.48690828657587
  C   7.07079773851185      0.35826459034744     -0.04702371310121
  C   7.63942643843638     -0.38097440475915     -1.17757491345713
  C   8.10933013509806     -1.01645906154015     -2.07707612598650
  C   5.82943644745763     -0.28836417346104      0.54994129242375
  S   5.35824441831188     -1.95405197211991      0.67566023067436
  C   3.49378814143393     -1.86260371231620      0.90416258208631
  O   3.00453347137838     -2.96125653343090      1.10206549307964
  C   4.89254925544529      0.68488692136883      0.62256660971041
  C   1.91168829838784      1.96429555239623     -0.83573009002814
  N   1.08729621284933      2.04044448535071     -1.62987682268570
  H   2.68206873089636      2.61724809252442      0.95780575515472
  H   4.24975814270260      3.69610624847032     -0.56414061767227
  H   4.33760753439961      2.24336576847274     -1.58365616531933
  H   5.71832558807511      2.63315334117421      1.08516314403146
  H   7.86838915626438      0.49617566777996      0.69743632803370
  H   8.50527954376934     -1.58514079466734     -2.88280010349798
