28
Coordinates from ORCA-job 4281optt
  Br  1.25476410740619      0.39480752759305      0.96766630660180
  C   3.09862409067858     -0.00340498762289      0.60400707764467
  C   3.45889670852567     -0.87329788316640     -0.33579670251191
  C   2.52041943839382     -1.72279281234623     -1.14354781795874
  C   2.10455741403930     -3.03189448186466     -0.46007577657823
  C   3.20522956843359     -3.89948109491306      0.14286808467942
  O   4.16058022438021     -4.37049211130664     -0.76930531896391
  C   5.10507490350370     -3.42675070389037     -1.27304119906976
  C   5.44974325268606     -2.31447237073537     -0.27478909627475
  C   5.13285270060437     -2.83339704078558      1.12174755464352
  O   3.78532254101918     -3.25183502512517      1.25566913344735
  N   4.84585840651880     -1.01035805081994     -0.58584767716638
  C   5.68591424341739      0.11423967174110     -0.21472082502911
  N   6.85367057784454      0.28546039884152     -0.80674647736801
  C   5.25889287181298      0.98980090945783      0.82029774906044
  O   5.81281542152174      1.94557856521760      1.32492628199898
  O   3.92651912914401      0.70481865857158      1.36454602084007
  H   2.98767505560524     -1.92411942839495     -2.10758859957424
  H   1.61041105648273     -1.15837791279066     -1.35021663522825
  H   1.54701605029417     -3.65280430962698     -1.16740452092582
  H   1.43159974835737     -2.78940270675583      0.36698767985611
  H   2.73744206254336     -4.81189063153418      0.52529475162508
  H   4.76290631767186     -2.99845917304558     -2.21678405704890
  H   5.99869152115130     -4.01979832643570     -1.47349775627133
  H   6.52359360491635     -2.13737022332414     -0.32818570361138
  H   5.28065149702240     -2.03821290716230      1.85385448132473
  H   5.80690148682013     -3.66637457304490      1.35969449359865
  H   6.91837599920483     -0.37671897673105     -1.57901145174009
