26
Coordinates from ORCA-job 4285optt
  Br  0.64208954770468     -0.32368508895019      0.44562060191715
  C   3.04840503988456     -0.04433885165844     -0.38772503051256
  C   3.62302268071019      1.19298924207706     -0.18583749740513
  C   4.97351892984946      1.28297020945145      0.13576910140461
  C   5.36701905056515      2.71827871773686      0.35921408543998
  C   4.22062964628196      3.48509902488058     -0.31765739144819
  O   4.07355145733500      4.79590276934676      0.20713772410786
  C   3.22381244264994      4.94567663591125      1.24843016157012
  N   2.39141023747881      4.13556534704572      1.71416084271759
  C   2.18769811676724      2.84196633945831      1.08777302028852
  C   2.98723935878267      2.56104585838472     -0.19937452729529
  O   2.15883639269746      2.61021220167865     -1.38216827678631
  C   1.44456932965785      3.68159091177152     -1.67503585119457
  O   1.44898152158632      4.73738687731629     -1.10800842007967
  N   5.79271910495300      0.24658089208542      0.25150005446579
  C   5.22792294951118     -0.94944646835678      0.04539645289975
  C   3.88523866427335     -1.14515438977513     -0.25896765946881
  H   6.34434315415452      2.97056197340164     -0.05085995116387
  H   5.37644975333072      2.95122477907973      1.42878673883424
  H   4.43483410768123      3.61313833921531     -1.37953655719203
  H   3.33993914284355      5.93538746527227      1.68140740260408
  H   1.12531248518818      2.71562905676010      0.87835418552643
  H   2.42403209306396      2.06739171550192      1.81905082180541
  H   0.82578730937738      3.46143035317017     -2.55517658800573
  H   5.89301321741772     -1.80498006169757      0.13084815176071
  H   3.50362426625380     -2.15242384910768     -0.38110159479009
