26
Coordinates from ORCA-job 4286optt
  Br  1.29381441568928     -0.22327087528945     -0.17370692081519
  C   3.15756000591829      0.04367785822611     -0.33665628881812
  C   3.77993470152225      1.22294874685442     -0.11758508134638
  C   3.31181399512393      2.61096514390938      0.23412408677975
  C   4.60883533943436      3.28409237098700      0.75682837668350
  C   5.74474909327349      2.54143810903305      0.04440883954360
  O   6.96202888017830      2.47812442199350      0.82727784848471
  C   7.85326013151753      1.52571487658449      0.41663904114297
  N   9.08651409479137      1.78888563239328      0.31578032763765
  C   7.35401260575034      0.10533277040107      0.22083940136325
  C   7.32044974723600     -0.55666358941193      1.58752951862897
  O   7.79169488061203     -1.64102790253459      1.83056842604516
  C   5.92024991207056      0.02642109856976     -0.22912592769339
  C   5.17679248801931      1.19753968762442     -0.16610843100507
  C   5.22274503615280     -1.21285601103095     -0.40251349160424
  N   5.63394050104697     -2.42006084782319     -0.41608506581974
  O   3.83541769538224     -1.09567714221984     -0.65751783065632
  H   2.51491767552566      2.60887330124058      0.97936124476108
  H   2.92747506146797      3.13754838861363     -0.64547130704446
  H   4.71842292504477      3.09452344197520      1.82627595716129
  H   4.62689832308471      4.36267192440006      0.59285157616008
  H   6.02754513808468      3.05381126717033     -0.88844852434051
  H   9.23183413635740      2.77526003539974      0.53224078933757
  H   8.07156823179126     -0.42733118995995     -0.40332420327055
  H   6.73476730539126      0.00476751590989      2.34012245885156
  H   6.63375767953283     -2.44570903301613     -0.23330482016719
