29
Coordinates from ORCA-job 4296optt
  Br  2.51264597046207     -3.02387515839253     -1.53609434958702
  C   3.26059810518342     -1.42319838337176     -0.84889724064447
  C   3.10113884781266     -0.23569665136424     -1.43602871821843
  C   3.93539503084362      0.90258167431872     -0.90022940741716
  C   5.28606659941464      0.39781470320644     -0.36785975072252
  C   5.11634887278016     -0.71660260148240      0.70741049545119
  C   3.72783763984311     -1.26581157158257      0.56484313861711
  C   2.68130868658231     -0.89164188053223      1.33546010645827
  C   2.61930108578611      0.07362757446138      2.50599123037634
  C   1.55667686519884      1.05370471245613      1.95408125400103
  C   0.97968536821435      0.26311895921405      0.77327583283909
  N   1.41802536181865     -0.98199452382457      0.75087124718313
  N   0.19807703706572      0.82170563430991     -0.12562178241254
  C   0.01291100862011      0.28227128711998     -1.35298991946664
  C   0.88759772991259     -0.15900493328321     -2.41949079241274
  N   0.45537891734209     -0.64333472355042     -3.53475326389137
  O   2.26280277370269      0.09941679756882     -2.45046935798789
  H   4.08421985546682      1.61939740247591     -1.71122725071606
  H   3.37833299243775      1.42602265057507     -0.11351082804337
  H   5.86808128081449      1.23111152775913      0.03390124102849
  H   5.84297540055132     -0.00524587539262     -1.21593822330217
  H   5.25108258372432     -0.30613257494241      1.71001691424002
  H   5.89071487987285     -1.47621275283112      0.56898091690063
  H   3.56779295250937      0.55769891248945      2.73680122094296
  H   2.26180038962288     -0.42868973269322      3.40683266234769
  H   1.99294735322126      1.99783972100471      1.62479252861095
  H   0.76535574825785      1.28974134595874      2.66653047771826
  H   -1.01639968422783      0.30236069301304     -1.70578770150564
  H   -0.55769965283428     -0.71797223268819     -3.48589068038710
