27
Coordinates from ORCA-job 4297optt
  Br  1.20182677623224      0.53049618181194     -0.85814456704177
  C   2.97165432442882      0.10076138167951     -0.29048506456930
  C   3.35926294079778     -1.27413189661553     -0.07840960170498
  C   4.70253021426655     -1.48074904034254      0.42109784916120
  C   5.54275714802702     -0.41682327418503      0.61730135781040
  C   5.15436205253885      0.91779650418945      0.35201538354909
  C   3.83731658246342      1.13894139161275     -0.09822533048863
  C   5.21351652164205     -2.87682658646534      0.65988830715304
  C   4.13442462167489     -3.74123890982654      1.33255945542722
  C   3.24108724855605     -4.02367326005942      0.13463086116932
  N   4.18711922126181     -4.30386346532310     -0.91571433051790
  C   5.46076784718574     -3.62515476109394     -0.66968429953706
  C   4.00115029005746     -5.24067185678605     -1.86662130535322
  O   3.02521446118396     -5.94597849135322     -1.99778560416626
  S   2.22232656729228     -2.55705485052860     -0.22988058364312
  O   1.72229701342767     -2.69702226441417     -1.58159737457139
  O   1.21166609364776     -2.56931199358252      0.81699094030682
  H   6.54552172662940     -0.62155743935881      0.98046931581974
  H   5.83186156150559      1.74397712264659      0.51145679992394
  H   3.48984620345543      2.14561648961322     -0.29363420499693
  H   6.13227653007482     -2.82304096572846      1.24314047181346
  H   3.61236081982877     -3.21669841164121      2.13042024081831
  H   4.54742719229925     -4.67829370269950      1.71371213710234
  H   2.50977240844420     -4.82356120343662      0.23692394222307
  H   5.70486245917138     -2.92603208301529     -1.46959763070288
  H   6.26496358004283     -4.35988490683081     -0.56888714238073
  H   4.87782759386383     -5.31801970826666     -2.53494002260374
