25
Coordinates from ORCA-job 4300optt
  Br  0.99866257588208     -0.02642339751876     -0.47402533279522
  C   2.88792089164900     -0.14547896131582     -0.16173427164742
  C   3.47901381731609     -1.27228882497953      0.36016410128003
  C   4.92531203316876     -1.27561602062722      0.50088860489021
  C   5.66275901187797     -0.16428771015172      0.01450888038039
  C   5.03078212554464      0.94101437025992     -0.47657905783298
  C   3.60855289887686      0.98795039797738     -0.55540377606111
  C   5.54854986042226     -2.53841971616949      0.84913628009790
  C   4.85267339470675     -3.26687296712133      1.98313494897367
  O   3.45812637972902     -3.02502952976350      2.01509470121568
  C   2.90187687258942     -2.60965543397369      0.75894534497505
  C   3.14231471605473     -3.68952726846414     -0.32484780245854
  C   4.53234702787753     -3.96819116220424     -0.91111872874273
  O   4.58760448435139     -4.66841031309679     -1.89466624099992
  O   5.63247510876243     -3.53085905816003     -0.33503636371830
  C   1.45173613004296     -2.66819122386361      1.05630786579441
  N   0.35888778842827     -2.87642753380090      1.33012875266384
  H   6.74718825236455     -0.20322645719272      0.04839964448116
  H   5.60863117794216      1.79078388578425     -0.82026047410249
  H   3.09174534341963      1.84098463541783     -0.96570047412821
  H   6.61118011066908     -2.43458922148922      1.05854005173625
  H   5.24473150958863     -2.90048242369528      2.93322952482044
  H   5.04153648922456     -4.34619460789677      1.91718522989978
  H   2.51423886216303     -3.45313995306617     -1.18337207318292
  H   2.79415313734812     -4.65042150488843      0.06608066446104
