27
Coordinates from ORCA-job 4302optt
  Br  7.93177245146359      1.47026824679933      0.35847498888253
  C   7.10698348679357      0.26980952964420      1.60934172800123
  C   6.93309664025612      0.68805397649292      2.92239782262192
  C   6.03081937921498     -0.10539894738754      3.84499522697985
  C   5.44833599952031     -1.38237075465660      3.18798462871318
  C   6.57086958317250     -1.94906093599341      2.34276734583953
  C   6.89040883837371     -1.03448429362546      1.22505630417277
  C   7.63370645907041     -2.54327695954215      2.92844312603519
  N   8.93813411383943     -2.18719768378532      2.52885097865879
  C   9.33657568307969     -1.62199976056323      3.66700222029088
  N   8.85156329364209     -2.24382895640505      4.81600194578446
  C   7.70903201179075     -3.04555513454522      4.35780538353047
  C   9.79728811625364     -0.27368464655573      3.69834061524628
  C   9.20772520072430      0.55145028828472      4.66678681991256
  O   8.95135247082084      0.31370551017252      5.86998765435863
  C   8.54352218460080      1.83297144064269      4.16603995445549
  N   7.51072941630698      1.85869376501481      3.42794737704545
  H   6.61703965515822     -0.37738395532720      4.73175713222118
  H   5.23077891593365      0.55681961101289      4.19880640526248
  H   4.59034101327964     -1.12254951799383      2.56428239877691
  H   5.09267687693804     -2.06168173531490      3.96230674658274
  H   7.14716952628209     -1.37102104728816      0.23208042415694
  H   8.71840160947714     -1.61056284381462      5.60130990546018
  H   6.81942951396183     -2.84431642763233      4.95276757525748
  H   7.92940314155929     -4.11668921136785      4.40549234507864
  H   9.91326213528083      0.15425818133958      2.71164612470704
  H   8.89258228320543      2.78503226239494      4.56932682196712
