26
Coordinates from ORCA-job 4304optt
  Br  1.19256360435125      0.57147264969618     -0.20071774954498
  C   3.08892467499488      0.27211848350826     -0.03761082565259
  C   3.62045647335050     -1.01646963648811      0.16403319998263
  C   5.06921837744684     -1.07297472358298      0.11724111395255
  C   5.85879812570703      0.04686329529118      0.04797175453226
  C   5.28325530708923      1.31718719296007     -0.00899064887239
  C   3.86249850793322      1.40373339017927     -0.10427044129660
  C   5.55107211272907     -2.47125905179652      0.03854918876637
  O   5.15869878506816     -3.24704690391374      1.14530872199071
  C   3.74820711835250     -3.16949923016619      1.35645944782978
  C   3.05789186342576     -2.42650704643644      0.18572838319433
  C   1.55200748862052     -2.64027114021134      0.20898559664831
  C   0.80864749889670     -2.18241516780302      1.43783795927084
  O   1.15363595230063     -2.38109391370408      2.57537960893161
  C   3.60715321153857     -3.04831385420235     -1.10747174629248
  O   2.96119859806291     -3.41577290210847     -2.05868607300908
  O   4.95725398149033     -3.08836374827833     -1.13121763447494
  H   6.93881309969803     -0.06884891383583      0.02367938850051
  H   5.88795130184202      2.21233929420480     -0.04022791835453
  H   3.37990606944404      2.36356269583391     -0.22568124901744
  H   6.62670466547465     -2.57360599911609     -0.07388210783945
  H   3.54132525672899     -2.64195043697923      2.28624232897384
  H   3.36715798133637     -4.19479226488395      1.42607789271288
  H   1.37648299821930     -3.72222864148685      0.14091257906742
  H   1.10212817264235     -2.20580921385027     -0.67984069350504
  H   -0.16795122674395     -1.70205421282985      1.24018992350548
