28
Coordinates from ORCA-job 4306optt
  Br  1.68188490029737     -0.00616293797775      1.34017995233017
  C   3.34047922820483      0.04529329569333      0.38313341743632
  C   4.04281495554353      1.20114305716997      0.22803378391467
  C   5.29719735185152      1.20834191400666     -0.45177670538343
  C   5.86528697176372     -0.01147711601348     -0.87187613087203
  C   5.14988255895972     -1.16925095195302     -0.73507774684696
  C   3.83587809720425     -1.20375752012504     -0.14316960882562
  C   3.12910206010461     -2.40775801961212     -0.08072990408499
  C   2.55612273984768     -3.48057989233882     -0.04706130456588
  C   5.83104714376428      2.58440061308192     -0.31224481329894
  C   4.55616886049235      3.42516189043304     -0.40231403241794
  C   3.87770922217726      2.63113083957039      0.73904407426890
  C   4.97597479264084      2.83660034113046      1.81802784762972
  O   6.19949423052775      2.84106695664745      1.09792306270006
  N   2.56192345999692      3.08866725047547      1.11529201288166
  C   2.12047487291170      3.24125024519792      2.39824419683361
  N   0.92132256117167      3.36978951076068      2.80766026017778
  H   6.85460089030605     -0.03611727266138     -1.31648167306175
  H   5.56030293955623     -2.10902445303881     -1.08341089471900
  H   2.04323083298022     -4.40866964024241     -0.00129487493893
  H   6.68765134002222      2.86465400569125     -0.91953532751857
  H   4.03185309522828      3.32255754377327     -1.35063277054226
  H   4.69641996903793      4.47391526634278     -0.13362187361472
  H   4.96176826210415      2.03485901858395      2.56064829522788
  H   4.84912828799980      3.80530812975699      2.31519666221536
  H   1.84162241849629      2.83822066787324      0.45080274455659
  H   2.91873086381548      3.29015517395368      3.13571200897378
  H   0.26192709299327      3.27828208382040      2.03332934154453
