28
Coordinates from ORCA-job 4309opt
  Br  8.32163930795402     -1.61562962213378     -0.21399492453976
  C   7.27775036160508     -0.68693788107527     -1.53255408995381
  C   7.40126198534542     -1.06711252085819     -2.85162080000062
  C   6.45528890313748     -0.56869408999131     -3.90452892564481
  C   5.40575333586643      0.39152062038690     -3.30200899877228
  C   6.10144570197583      1.26613512697486     -2.26788526299995
  C   6.59802901539134      0.47601226700353     -1.16111061353133
  C   7.02691609124229      2.12626436687397     -2.86419376041099
  C   8.37593435206540      2.29321794157954     -2.52541954943133
  C   9.23444808757200      1.99376510790993     -3.67515071307390
  N   9.48961751268261      2.65885569947569     -4.73487615416504
  N   9.68261442745339      0.62388573723808     -3.61246385796146
  C   9.55592172717021     -0.24003252583210     -4.68378610372541
  N   9.72245815016169      0.01695088893661     -5.91537172791082
  C   9.15560158861871     -1.68151159305709     -4.34737628537593
  N   9.52692690213876     -2.66043220627874     -5.04066298407038
  O   8.40435175100222     -1.93875551157948     -3.23266711838165
  H   7.01921319327203     -0.05006308574799     -4.69129027457199
  H   5.98227673622500     -1.43452632115175     -4.38546608269408
  H   4.60225021719848     -0.18902668305826     -2.84268538930031
  H   4.96819853809215      0.99105452447822     -4.10324325363382
  H   6.75600616035281      0.87325821185622     -0.16576981557795
  H   6.75464511284873      2.46663667361278     -3.86617062098762
  H   8.68482613806193      1.76285360411999     -1.62876700364632
  H   9.08962717571882      3.58708524879612     -4.62524232422356
  H   9.41636845785920      0.20211132783777     -2.73531568127844
  H   9.97135262528005      1.00137035267858     -6.02144454719689
  H   10.09927644370734     -2.29125565899488     -5.79993313693933
