30
Coordinates from ORCA-job 4312optt
  Br  5.54692452737911      3.07258242737631     -2.39449082068101
  C   5.88901079456124      1.16286059693917     -2.26181402032030
  C   4.80494956835760      0.31322919674024     -1.93212951029166
  C   5.21470160945882     -0.98083503530903     -1.27680495205848
  C   6.24167554299342     -1.65661359732462     -2.19546218506512
  C   7.44075224042311     -0.75001466063283     -2.48204864049226
  C   7.09610524666978      0.69265786678158     -2.81773268253192
  C   7.84330692093363      1.41098323575289     -3.73546605882812
  C   8.51598192664893      0.78567678846023     -4.85517581910444
  N   9.56497476884948      0.08082862813875     -4.90391058967141
  O   7.78516735266208      1.01355155155278     -6.08848660497352
  C   6.53401746591952      0.46400781030466     -5.93536869464426
  C   5.39707050094757      1.13704420971449     -5.74442101615032
  C   4.40231866728839      0.46812418648933     -4.91372225767806
  C   3.67556286789878      1.07911665364277     -3.97043791586880
  C   3.54826380120175      0.34479341134483     -2.65354797352743
  N   2.51830208270715     -0.36820466237255     -2.30593440284003
  H   4.33768264271893     -1.61345173671500     -1.14375728440485
  H   5.66525210887073     -0.80266725714471     -0.29434833359414
  H   5.73812137686821     -1.90639278411242     -3.13481755178382
  H   6.59842423513667     -2.59745685267314     -1.76472280416490
  H   8.07440886145746     -0.71011844362728     -1.58906013275101
  H   8.06628377858460     -1.16832022954322     -3.27114842761498
  H   7.45287017075095      2.38604085134707     -3.99809711717192
  H   9.67970387974177     -0.28178625969519     -5.85052233842821
  H   6.55725889935997     -0.61136844732655     -5.75800124578138
  H   5.38259210203626      2.21795777098209     -5.82962443452127
  H   4.59357836651509     -0.59258044236856     -4.76544458173943
  H   3.50674016820619      2.14853244756238     -4.01392102511822
  H   1.80299752485262     -0.28917722428446     -3.02558057819861
