26
Coordinates from ORCA-job 4315optt
  Br  3.55795294153047      0.90028064187677      1.68715829864792
  C   4.50534431941028      0.65032625660605      0.06539497300371
  C   4.43557440923866     -0.27567856716927     -1.01275024744712
  C   4.40810113526837      1.21652248678298     -1.33582718062139
  C   5.76984709316503      1.64368690084043     -1.78603992131698
  C   6.64194968399377      0.83147741177080     -1.15088013145829
  C   5.77382930305358     -0.07435177292051     -0.31359114444951
  C   8.07831079456112      0.72170122859658     -1.15358078318246
  C   8.94910443622268      1.39014435351211     -1.93803242522108
  S   8.54607588280878      2.61266906678603     -3.07968679733822
  C   10.07619357771478      2.74569976265923     -4.01841098550854
  N   11.00592691138008      1.81544983722288     -4.04862758989699
  C   10.14266365744102      3.96625378498005     -4.74707853042897
  N   9.19995533677167      4.88316163671434     -4.62601917473172
  C   11.29042166643486      4.18996504783188     -5.69983068748586
  O   11.36557739765312      5.20346090474300     -6.36135363475760
  O   12.21106962029462      3.23630459436782     -5.78936036932020
  H   3.83436848071729     -1.12904025984401     -1.28069988149577
  H   3.48398153591322      1.67053461160016     -1.66464446408366
  H   5.96973604136093      2.46172733990979     -2.45708882586689
  H   11.95133366963895      2.49113144591852     -5.14988945004411
  H   6.16433987528609     -0.84921276035234      0.33242422857316
  H   8.50110112899937      0.01631652683020     -0.44618785578010
  H   10.00935655320539      1.19917127019481     -1.81553649903332
  H   10.72829028064974      0.93321070758178     -3.64001491406257
  H   9.43659426728594      5.64408754295988     -5.26184600669341
