22
Coordinates from ORCA-job 4321optt
  Br  1.04473309607322     -0.69252495344957      0.02118775027542
  C   2.91994473846490     -0.34924747421313     -0.05796746243229
  C   3.43650123037755      0.96187276950111     -0.02250764231086
  C   4.87949857612313      1.11921344744464     -0.14461231758233
  C   5.68943849180205     -0.00484167494104     -0.18599756376535
  C   5.14944006220826     -1.28189703401668     -0.19599253857570
  C   3.72393871279759     -1.44709490863951     -0.17064165557262
  C   5.99378368934212     -2.42177376150704     -0.26140404031814
  N   6.66650638061250     -3.35774785924094     -0.31789526038635
  C   5.53011965751359      2.42308527812254     -0.23845060679511
  O   6.70222402767816      2.63950722437472      0.00461200005103
  N   4.73023959389025      3.48127065139655     -0.74709364296575
  C   4.28416894636213      4.58754976752701      0.06204921614989
  C   3.32700360390000      3.58475502505243     -0.48512468995978
  S   2.63105574913229      2.35961234900713      0.60812732348691
  O   1.20810574052950      2.36451546482767      0.38164274870877
  O   3.12489173056033      2.64786473215319      1.93741918263050
  H   6.76064609431976      0.14162430631438     -0.24117897862743
  H   3.29251106341797     -2.43439907426962     -0.23922247370860
  H   4.34180113803020      5.56514694391112     -0.39970785122974
  H   4.47484740023449      4.53168877525802      1.12701155995293
  H   2.67460027662996      3.79382000538699     -1.32525305702542
