29
Coordinates from ORCA-job 4322optt
  Br  1.75920609060097     -0.22011601671073      1.17623460930213
  C   3.43649447379481     -0.27172248236206      0.25488815188517
  C   4.12082856396074      0.88925845657315      0.10160593720085
  C   5.41608488681990      0.94744680693003     -0.59731441561208
  C   5.83145433375696     -0.31350781785111     -1.13709123668901
  C   5.10015613381971     -1.46941321684775     -0.95391670459991
  C   3.89677883729084     -1.50545919758853     -0.24128953824756
  C   6.34433625502194      2.10939937691473     -0.67284458933060
  N   7.54549895724651      2.05196617486909     -1.15156201966959
  O   6.04261565423472      3.48642547944844     -0.36594595151050
  C   5.39002036355495      3.89720411565368      0.84521664126877
  C   3.96321509335585      4.58291425853830      0.74983643195603
  C   2.88818192691181      3.42294702369307      0.96067686961389
  C   3.82584657155555      2.31335073805814      0.44047591754894
  C   4.98054361340280      2.62596336868929      1.47086095237706
  C   3.70974952680903      2.75456959208786     -1.12104813411768
  O   2.65470757561082      2.51737779274281     -1.64182898435907
  H   6.72601877421634     -0.38346511453976     -1.74070473865485
  H   5.47296198871318     -2.38949587315597     -1.39128904805619
  H   3.33298664150675     -2.41401690054422     -0.09751910831560
  H   7.77016315955998      1.10278421505884     -1.42132903894305
  H   6.09226216160687      4.54310633514625      1.37795287248782
  H   3.81745369138135      5.07804938370512     -0.21222566993842
  H   3.89244624914893      5.34699555783121      1.52576263218808
  H   1.99387526720111      3.57150229343686      0.36351996361595
  H   2.60543227558401      3.32005382793153      2.00768887009254
  H   5.77318322738328      1.89139091349012      1.54260235351112
  H   4.52026832115712      2.73938200038598      2.45261856551255
  H   4.51122938479300      3.26810890841554     -1.65603159051679
