25
Coordinates from ORCA-job 4325optt
  Br  0.89732586383995      0.13950378737703      0.65287447129277
  C   2.79677428169098      0.26831111701791      0.42508462565501
  C   3.43087317004203      1.46579066257875      0.21807638214123
  C   4.84933333867227      1.48780921120418      0.02612647599145
  C   5.57418652039834      0.26509541033786      0.04558341260781
  C   4.89956727090420     -0.90849382576114      0.27455793649512
  C   3.50748346012753     -0.94177470332714      0.48011810926614
  C   5.34360948062168      2.80954041652013     -0.12163465262659
  O   6.51442589771098      3.21016609669269     -0.26762277075510
  C   4.15555936511097      3.76250522732959      0.07638977516753
  C   4.27370171023328      4.36335253298116      1.46293328331948
  O   3.06488240642852      5.01996838978679      1.87611438972422
  C   1.95566112150591      4.29606240140587      1.64530472495988
  N   1.80761536376416      3.28873626037922      0.90537709234265
  C   2.90023308860840      2.88494877546937      0.02629215681821
  C   2.27166281263563      2.86239332348221     -1.36702251284989
  O   2.72792175605428      3.40121056624927     -2.33758850380745
  H   6.64483118080148      0.28537848995964     -0.11145429967371
  H   5.44679046223489     -1.84489851537246      0.30081927068773
  H   2.98604649557600     -1.86885369138541      0.66354826303154
  H   4.12799668171855      4.54284315745652     -0.68513162886298
  H   5.06556902930938      5.10575704079316      1.51029473414908
  H   4.47948608916031      3.57016136626629      2.18907889696826
  H   1.11230414631769      4.69047894022629      2.20752613637434
  H   1.33915900653257      2.27200756233219     -1.40664576841673
