25
Coordinates from ORCA-job 4327optt
  Br  5.00978833135984     -3.81757438959759     -1.49976113979032
  C   5.77847673300088     -2.94128690413873      0.02326784970785
  C   5.66613062220643     -3.49570263639091      1.23762329999844
  C   6.18684860117918     -2.71312013286496      2.41593940944857
  C   7.43292745829844     -1.83984124923517      2.11256252310140
  C   7.79197739879106     -1.78886427650808      0.66370592989317
  C   6.89151890533462     -2.05324508681311     -0.29381776447785
  C   9.25487137538337     -1.73883484510182      0.32521939884471
  O   9.78777941496615     -0.77922680035021     -0.23051429025598
  C   9.97479519614442     -2.93690986585144      0.69530821235570
  C   9.43055854955421     -4.14919150595294      1.14265854945430
  N   8.12577292136069     -4.40798902664375      1.27739517817217
  C   7.59632517405221     -5.55481079046482      1.66370650941941
  N   6.25760891577337     -5.80462993512640      1.72472449145980
  C   5.33621130382604     -4.91675578358045      1.48174089863861
  C   10.39176524482930     -5.18884651551192      1.47235842764095
  N   11.12662356182825     -6.02820496948786      1.75308706871256
  H   5.37321312174220     -2.06934825904831      2.76085791178050
  H   6.40828202319933     -3.40887352653239      3.22548469743158
  H   8.29376245806771     -2.18529063545712      2.68502765953775
  H   7.23327873171734     -0.81350757871464      2.43374413021921
  H   7.16802913135445     -1.96902899490453     -1.33735314299686
  H   11.04824667446755     -2.88603501006978      0.56560923155114
  H   8.22485019883523     -6.41014188281024      1.91596125635740
  H   4.30635795272754     -5.26173939884274      1.46746370379575
