26
Coordinates from ORCA-job 4328optt
  Br  1.51316598287191     -1.10108281921037      0.86185618325482
  C   3.24360080135503     -0.42209730899993      0.37496490147608
  C   3.50373395075583      0.91782702612760      0.19355405177890
  C   4.78505959454010      1.28101955743255     -0.27767130458286
  C   5.78471338754262      0.32858044256314     -0.47436137573533
  C   5.49509515090596     -1.00706599662672     -0.23994451403559
  C   4.22714623135116     -1.39865348085183      0.17017868318063
  C   4.87552717147436      2.70892347664072     -0.57166077478629
  O   5.89397279099543      3.29954483655293     -0.98589470585183
  C   3.55200353145738      3.27099211564572     -0.29860622067706
  O   3.16058975300520      4.42265221212121     -0.43203745905282
  C   2.66075887016038      2.17325106881633      0.35859389873077
  C   2.51756102479527      2.63363985675123      1.82291273756230
  C   1.39300657111683      1.92655472980786      2.55668552349334
  N   0.20172923733477      2.02365856579737      1.73179763221209
  C   0.32951599625221      1.99259218465876      0.35910200850852
  N   1.38494783218586      2.06500495141322     -0.33514302478911
  H   6.75258503970901      0.65579092094765     -0.83231935223011
  H   6.25311248805456     -1.76686534092904     -0.39428655906295
  H   3.98775028800825     -2.44083427792932      0.32646883325337
  H   2.29606990846230      3.70325129530710      1.78059738042563
  H   3.46551308133240      2.50075132109556      2.34595480099040
  H   1.65749631684213      0.88452266084923      2.75642714610138
  H   1.20128198992804      2.41721827116992      3.51414229079720
  H   -0.64734538159081      1.62475416383418      2.09428303753624
  H   -0.62659160884622      1.91006956701489     -0.15759381849773
