25
Coordinates from ORCA-job 4329optt
  Br  1.51393460450867      0.67391926427997      2.94178812309572
  C   2.44368043335658      0.29837886960184      1.28943274127404
  C   3.27559358296200      1.27831321255787      0.69740008951616
  C   4.31406271720050      0.83646831479041     -0.08797754130643
  C   4.48972337355702     -0.56620640305260     -0.29704813772582
  C   3.45439748303592     -1.43029418640721     -0.01971241315292
  C   2.28153838550730     -0.95611719729287      0.62623390413097
  C   0.95970036712459     -1.42519844770676      0.21264868245628
  O   0.67518914287529     -2.53662893384148     -0.19920305083426
  N   -0.05352858772015     -0.39592817229845      0.31927708856961
  C   0.22800370519160      0.68592899775587     -0.26973030681489
  N   -0.51109876669956      1.84078038948331     -0.04228661568711
  C   -0.28555763176244      3.18654476405541     -0.34784568215704
  N   -1.14848233369325      4.09913015152072     -0.17352087020639
  O   0.89498698151196      3.57150470819138     -0.89156505442486
  C   2.06316794040485      2.85239454218631     -0.66279036206774
  C   2.52914862777113      2.55501566187612      0.54637105921594
  H   4.91628519877210      1.54961237248934     -0.64063329581373
  H   5.36290770176285     -0.92337298272819     -0.82892231497218
  H   3.46843423146930     -2.44793975656894     -0.39734144368008
  H   1.05660507014206      0.79496017706031     -0.96582009301730
  H   -1.24520663154061      1.69695017842940      0.63685051340357
  H   -2.03541248384636      3.70081054141150      0.11796836041671
  H   2.48275042447635      2.45167826846399     -1.57670616507158
  H   2.03017646363224      2.97029566574274      1.41513278485335
