29
Coordinates from ORCA-job 4336opt
  Br  5.24743778691694      4.54579093783691     -1.55168646095550
  C   6.31522342556709      3.49540727202365     -0.35978721278150
  C   6.91789314412399      4.09070703239705      0.68367406140971
  C   7.55827021485924      3.14708199664661      1.66576479868032
  C   8.33540388478772      2.03626732310360      0.95747034523834
  C   7.71515144163421      1.55181209072086     -0.34604285351630
  C   6.56390802097780      2.13482800073221     -0.78903425961359
  N   8.43465503239074      0.59275897582689     -1.03347551804956
  C   9.58856734785958      1.10431268974218     -1.47293762596168
  C   9.70254818932604      2.51673294933952     -1.62787177435694
  C   10.64455146347758      3.43709209676618     -1.21347255520890
  C   10.08275867939725      4.75424790875833     -0.95425054307106
  N   9.38795386009405      5.44581380708561     -1.75483386446987
  S   10.20309756447284      5.11766215058887      0.85376833643433
  C   9.08638457597001      6.43895800145720      1.11838661766424
  C   7.73366963754675      6.42311199065284      1.15032269416561
  N   6.77168420015044      5.45884575050983      1.00076768856927
  H   8.21650099685172      3.69442633108799      2.33996730472373
  H   6.75412697373989      2.70533572681314      2.26928177607058
  H   8.39475502785049      1.16222555115490      1.61180025895984
  H   9.35755642638663      2.35929037524923      0.77008831863319
  H   6.12099158199479      1.80094179600634     -1.71661684768846
  H   10.40467224758176      0.41903369377362     -1.69621135502119
  H   8.75001002835433      2.97860394734718     -1.87209457800571
  H   11.53270409613303      3.13839984320508     -0.66748771743586
  H   8.91444702210522      6.21332910325019     -1.27749425642972
  H   9.52743376041052      7.41356951657878      1.28668486525992
  H   7.27309651402368      7.39034438503255      1.33356047277612
  H   5.86554685501487      5.83706875631232      0.77075988398068
