23
Coordinates from ORCA-job 4337optt
  Br  1.17691033103214     -0.20897548287893      0.62708098858139
  C   3.08943120167746     -0.08582037012604      0.43770762038687
  C   3.69396254776837      1.14062754416320      0.22089994689163
  C   5.12251370041416      1.17192912282801     -0.02151964765125
  C   5.80631164515706     -0.07626465332116     -0.01392358958781
  C   5.16186507184119     -1.25331003701948      0.24106036385320
  C   3.77034239262835     -1.28798126279472      0.48572483656368
  N   5.81759295270529      2.29631958698232     -0.27672835237104
  C   5.22824146476325      3.46491803220056     -0.16888196397872
  N   3.89730182319810      3.55066334225314      0.27407816693150
  C   3.31538583574479      4.60472123312854      0.90167312388559
  O   3.78700311484021      5.68461969099411      1.13786214356615
  O   2.04155987027229      4.25336526484190      1.25160644234248
  C   1.87245354978399      2.85158321892165      1.06539671875346
  C   2.96635680138160      2.45479370294369      0.04388335493949
  C   2.41505222673511      2.55603694449459     -1.33547168587384
  N   1.96901706809683      2.64689383408654     -2.38968292768868
  H   6.86976374506214     -0.04990045330070     -0.21646858057743
  H   5.71986534585991     -2.18245652823637      0.24595279368839
  H   3.24714368132867     -2.21109617005437      0.68083017361310
  H   5.73171392028267      4.40150612439855     -0.34569369078016
  H   0.86519118386597      2.66905472815116      0.70892565169069
  H   2.04702052556038      2.32877258734375      2.00668811282130
