26
Coordinates from ORCA-job 4344optt
  Br  2.69966553513794     -0.03464423832790     -0.76902752358117
  C   2.30239768419567     -0.52536852751654      1.18503267583346
  C   3.29861438803768     -1.49952413317095      1.56497057467827
  C   4.76156636841562     -1.22852180582906      1.62483745967515
  C   4.95884659215064      0.02170203606809      2.50789402217291
  C   4.03822916802571      1.16843950770006      2.06753590015115
  C   2.57134258522216      0.74951207360942      1.95926026464296
  N   1.75366393059825      1.44172180889312      2.64851943470162
  C   0.35046408728782      1.38536435858275      2.75902083015098
  O   -0.28379330713949      2.38905307836673      2.52795793860037
  N   -0.33134483010937      0.21604665321073      3.13693416095298
  C   0.24769258022209     -0.85462420482351      3.51415817538799
  C   -0.39785773895729     -2.20875932581027      3.25964268222192
  O   0.71656729962583     -3.01218309470047      2.82402364565200
  C   1.80740407608591     -2.27650190809507      3.09567783582325
  O   2.90708220682335     -2.59378487658095      2.43637984987836
  C   1.60646696507345     -1.17016801654601      3.85476433847568
  H   5.12259606886854     -1.00667058707409      0.61650189400590
  H   5.32014528589700     -2.08051883594493      2.01598003931117
  H   4.74430066420233     -0.24168716366468      3.54926579514919
  H   6.00121653471990      0.35220942931813      2.47174914972711
  H   4.11268178744914      2.01246893178364      2.75294406897316
  H   4.35051914186813      1.50551989771371      1.07435676175298
  H   -1.11589620209808     -2.15550164787490      2.44697722991681
  H   -0.84022494215319     -2.64994058143105      4.15537188541424
  H   2.38365407055020     -0.46563882785599      4.07527091033149
