25
Coordinates from ORCA-job 4363optt
  Br  1.03050046731700     -0.23430550314989     -0.24901614211883
  C   2.89229809569018     -0.10241613909904      0.00487412323699
  C   3.62539704676103      1.10305991563936     -0.03017753062936
  C   5.00829980763601      1.06408500946885      0.09279340100504
  C   5.58320207503597      2.45171445254738      0.18949851950485
  C   4.42343459379526      3.33723915071589     -0.28179701467254
  C   3.14125149110368      2.51979546065487     -0.03515018016302
  C   2.37880674969097      2.92358861798134      1.23678594303421
  O   1.47770464838935      3.92093957516739      0.78548288357826
  C   1.06080833183225      3.43422145042411     -0.46501825888555
  O   2.17350649876553      2.82346781271460     -1.06153315148351
  N   5.79257960684953     -0.00955758847952      0.19613952082476
  N   5.03209424662937     -1.15119992979240      0.12598896847600
  N   5.57157709079823     -2.36811423291532      0.15337889125515
  N   4.59449562248805     -3.20036386313587      0.08053639866536
  N   3.40588581469506     -2.57575664467534      0.00829148363432
  C   3.67844421298174     -1.27641676891793      0.03968088044919
  H   6.48585525710881      2.56098690591418     -0.41375108080449
  H   5.86158166685589      2.66608083547829      1.22662485278169
  H   4.49095156491763      3.50293886892012     -1.35717667684969
  H   4.37813579144761      4.31224950768219      0.20836099235252
  H   3.03060899238649      3.34953543872519      1.99815598593514
  H   1.83232772133689      2.06592810313319      1.64263232833355
  H   0.72769659812583      4.27551319180750     -1.07428466204384
  H   0.25855600736158      2.69578637319086     -0.33532047541622
