24
Coordinates from ORCA-job 4375optt
  Br  0.64424871308769     -1.10528005192908      0.05462930056331
  C   2.99595210698694      0.01937806128937      0.07276061782409
  C   3.68222733365637      1.21423474930386      0.06434961344288
  C   5.13213763134728      1.10588281964394     -0.00738642955513
  C   5.66595248715019      2.39039666111005     -0.01475449013071
  C   4.57948226337836      3.28243558513140      0.04444988958825
  C   3.37091749973544      2.58373595265432      0.10015187954559
  C   1.99391044293873      3.17397657225731      0.12672856065733
  C   0.99272933332750      2.46027731416558      1.08871172973632
  N   0.44549485714844      3.53950167994638      1.91915473714512
  C   1.09603188695739      4.57364658008148      1.62630051124951
  O   2.05678462574659      4.52231731972230      0.67930426996434
  C   1.42903842366624      3.29181763950968     -1.22736110599905
  C   0.95408751796240      3.35421357538473     -2.32508979103116
  N   5.77031447803430     -0.09032473569600     -0.04975914471992
  N   5.10638517678759     -1.16836155513680     -0.03757195268574
  N   3.74454584800058     -1.07268408423378      0.02221614784660
  H   6.71388734466814      2.64466183887552     -0.04942717327014
  H   4.65434059443066      4.36046168462630      0.05715622212228
  H   1.50547203966035      1.73137932115793      1.71583025429719
  H   0.20751934150923      1.93479651260646      0.55044137639794
  H   0.96486151499063      5.54906733427306      2.07950922356408
  H   0.53667413603742      3.39393910551245     -3.30144529632381
  H   3.27900440279139     -1.97146988025661      0.02110104977081
