26
Coordinates from ORCA-job 4376optt
  Br  1.02880683163217      0.50468779215893      1.73170507847767
  C   2.78453290751348      0.41514772443676      0.96685231022764
  C   3.23053505889606     -0.79349133030039      0.43941512232950
  C   2.54921573084615     -2.13627052440008      0.38871368545544
  C   3.40560586191489     -2.91333525134475     -0.63067432365866
  C   4.80467302964111     -2.27310856476429     -0.56526961456539
  C   4.51073736400071     -0.86909024643248     -0.10403184531174
  C   5.33986271958065      0.24244150232569     -0.12940199435290
  C   6.70752485044435      0.39006285736664     -0.64540860213607
  O   7.42661741911827     -0.48688691068090     -1.17794728274801
  C   6.96752904736614      1.78772299696065     -0.37196301839947
  C   5.90945049544197      2.44386772666884      0.23203851504460
  C   6.34642926097334      3.79132695246141      0.41709038473939
  C   7.61084298643540      3.83941279912957     -0.08139051885451
  O   8.01754369947507      2.62876539390241     -0.56947547808259
  C   4.84610213429476      1.48439015271561      0.40650858077179
  C   3.57184313308866      1.56084588477695      0.95469820479093
  H   1.49929610718604     -2.07093348238647      0.09782073813260
  H   2.57548422318960     -2.61483198135505      1.37509679158852
  H   2.99080521263177     -2.75682777130156     -1.62918496427795
  H   3.41613829862505     -3.98782181007139     -0.44157793417834
  H   5.34801088349003     -2.29463378870202     -1.50901389287040
  H   5.44179521197511     -2.77523954989420      0.17048760601167
  H   5.82112817495499      4.62522674656502      0.85470054278727
  H   8.32778742992222      4.63908803920812     -0.15875390748350
  H   3.18970192736199      2.48748464295694      1.36396581656250
