27
Coordinates from ORCA-job 4377optt
  Br  1.21229514805282      0.03876217538197      0.42217035481659
  C   3.09710246764568      0.04645627418203      0.22349489550520
  C   3.77729463760763     -1.15087724175999      0.06510594403652
  C   3.22976055539834     -2.55189859381193      0.07786642046366
  C   4.41505329988689     -3.39929337703485     -0.42097932199535
  C   5.68000403481934     -2.60066561369438     -0.04676445714168
  C   5.17182682759734     -1.18599944309626     -0.03294193799896
  C   5.86637791831596     -0.00663362853468      0.00328724749205
  C   7.30103193229811      0.35415741548199      0.02646542056884
  O   7.29680642264297      1.74030482967167     -0.36167539271870
  C   6.03131913016994      2.25184097463062     -0.25299750222417
  N   5.76419700732524      3.48249642607010     -0.41202435266390
  N   5.16375760561660      1.22505011777487      0.02470320392619
  C   3.73830381619635      1.33578759293185      0.20362544808901
  N   3.12918737854367      2.45469633238502      0.31254225368466
  C   7.73175083542105      0.20195231936589      1.46583011238245
  O   8.50917877090467     -0.65079631054530      1.85434077059613
  H   2.33799195104299     -2.66194684093106     -0.54170314697495
  H   2.93730217122917     -2.83186854158265      1.09778676195096
  H   4.35667049798311     -3.48350572106049     -1.50818350361484
  H   4.41644388145730     -4.40967127892431     -0.00903717907686
  H   6.49970208745788     -2.76366925002905     -0.75080780119920
  H   6.05199377556185     -2.88872230580050      0.94320268958153
  H   7.95129680840894     -0.23090430206222     -0.62519325365944
  H   6.62928897679825      3.98655954949161     -0.57985538988378
  H   3.77934262648489      3.22977578799063      0.22938497304053
  H   7.18971943513291      0.86661265350940      2.16435674301751
