22
Coordinates from ORCA-job 4378optt
  Br  0.73067406154210      0.22828291372190      0.00317835174922
  C   2.61262263394972      0.12756206995790      0.00828991529489
  C   3.40000109947453      1.28421184980750      0.01023506605044
  C   3.03948147238003      2.63791993961474      0.01110507595145
  C   4.23458295647675      3.39471954032296      0.01244717243041
  C   5.33982958615109      2.52282059349475      0.01249835480322
  C   4.84056172782605      1.21936741336955      0.01116553973885
  C   5.54045573566069     -0.02202558227710      0.00982611525988
  C   4.96136141181301     -1.26024816433998      0.00890683249519
  S   3.22332162058047     -1.49519969422187      0.00913796370876
  C   5.77367098444228     -2.48194780625930      0.00802664762490
  N   5.33248069477340     -3.68474270455191      0.00804378361412
  N   7.17171914316061     -2.31131735626538      0.00735969099559
  C   7.65113688267948     -1.12915860924434      0.00796267612207
  N   6.92394140425761      0.01503481788359      0.00930331715588
  C   4.32079167342254      4.80910021971348      0.01372396818527
  N   4.39820316245754      5.96010236741362      0.01489630456382
  H   2.03610293191156      3.03151816012594      0.01086168814372
  H   6.37151271999487      2.84454904287706      0.01339878326831
  H   4.31561312790452     -3.70089633475433      0.00871044337455
  H   8.72888747183048     -0.98751023960792      0.00732369699681
  H   7.37904749731061      0.91185756321912      0.00959861247265
