25
Coordinates from ORCA-job 4385optt
  Br  1.29095936929277     -0.37351288194341      0.27612866409414
  C   3.16631329854422     -0.45048906215868      0.19440845924159
  C   3.89850520537873     -1.59835840957597      0.11231703483391
  C   3.43210324207929     -3.02193087610134      0.13022956198449
  C   4.66498555275189     -3.79967397444840     -0.35148064540150
  C   5.88353917430084     -2.92867055516400      0.01106029428493
  C   5.29507506890231     -1.55177375145366      0.04587069681600
  C   5.88879580753465     -0.28261971835995      0.07405005496649
  S   7.54858113849099      0.23276972801146     -0.00309305324164
  C   7.00229582395348      1.98634635346201      0.05735921092239
  N   7.81757109436197      2.97438952840477      0.03505491151260
  N   5.64976669905211      2.06515841531237      0.12708698254139
  C   5.10527482278214      0.86815500427345      0.13516657531803
  O   3.73289066757833      0.80345058375551      0.19719770753094
  O   3.11785813768552     -3.45757827141753      1.47380263398947
  C   1.83277753997825     -3.64707568574665      1.79813254453634
  N   1.42773677198119     -4.02649475491879      2.92902900153217
  H   2.55129542765905     -3.20046452394374     -0.49190306115424
  H   4.60382591459286     -3.90269304911665     -1.43604481101959
  H   4.68739094804400     -4.79689230013200      0.08840872542325
  H   6.69015488429688     -3.02856433104721     -0.72003023661106
  H   6.29924087422624     -3.21672261572845      0.98453559706110
  H   8.77679832027198      2.64893977775750     -0.02206387347811
  H   1.12263009190957     -3.45730021458881      0.99301331512019
  H   2.22063412435070     -4.13939441513181      3.56176370919673
