22
Coordinates from ORCA-job 4387optt
  Br  1.34413193343767      0.67149900241770     -0.32641039854764
  C   3.23439970487561      0.46713673127548     -0.19568865335350
  C   3.73477024427654     -0.81576730830137     -0.14976261335608
  C   3.11233979291871     -2.10488340091933     -0.17139112546448
  C   4.11190823195620     -3.05041106809071     -0.07935052424564
  C   5.38383538798820     -2.41292841442974      0.00053901947876
  C   5.16916875363496     -1.04350223655562     -0.03945795740349
  C   6.01527017306856      0.08452495792633      0.01448836643389
  Br  7.88693179062735     -0.13879248357142      0.20542227985504
  C   5.50009206457201      1.33202743319144     -0.07610861971050
  N   6.10965350027859      2.59112973208183      0.13864687811747
  N   6.02271631798399      3.26695476892041     -0.90527346365212
  N   5.53955200347097      4.50055687669122     -0.51501913505363
  C   4.14599817756137      4.28832366689685     -0.13878714604321
  O   3.46937097770637      5.29160603543036      0.01005342177980
  C   3.57451936392832      2.94360684315604     -0.07458637550275
  C   4.07082659055145      1.61740274926228     -0.15545943413819
  H   2.05070339923487     -2.28018666771533     -0.24442405214137
  H   3.95840620383654     -4.12067574380406     -0.06842532235771
  H   6.34464019279206     -2.89847376279560      0.08031931235943
  H   5.58276509816076      5.18222764331267     -1.26417316057888
  H   2.50400009713887      3.03462464562056      0.04384870352482
