25
Coordinates from ORCA-job 4389optt
  Br  0.62457804599190     -0.84073664466692     -1.31666444000206
  C   2.81073152872389     -0.53069730101968     -0.09923382772522
  C   3.74510332556259     -1.51316723668291     -0.00401612643251
  C   3.57130785737118     -3.02198399689828     -0.02142691112061
  C   5.00783157511556     -3.53315770285468     -0.21510672309243
  C   5.93210583542284     -2.42324792649804      0.32230429790633
  C   5.10714755050246     -1.17296448241990      0.18234180681940
  C   5.49775322775053      0.12998530174729      0.22279873759337
  Br  7.30839483262064      0.61710738209761      0.46249089390569
  C   4.54489570078461      1.20960714734711      0.07736821761257
  O   4.78291451387354      2.40778897893314      0.08111702063653
  N   3.23022830303693      0.74708805037349     -0.07166719379750
  C   2.98369271155452     -3.40264201476826      1.31774069104281
  O   3.63675206147218     -3.77644690510006      2.25678900429527
  C   1.46518065677433     -3.22136300587825      1.43931997455147
  C   0.79135652232932     -4.35625535927442      0.81642736150583
  N   0.28555363271750     -5.26575464077281      0.33538532343018
  H   2.88145826929300     -3.32717256207381     -0.81204112205009
  H   5.18303768703756     -3.66881876658459     -1.28282913645081
  H   5.17083153958201     -4.48611571424170      0.28578709552624
  H   6.88102907806407     -2.35333866571386     -0.20933283675141
  H   6.15684745131664     -2.58051442791333      1.38068025754605
  H   2.54337747843826      1.48291101296487     -0.18476966328257
  H   1.15037961214020     -2.31103087163787      0.91635296236262
  H   1.19551100252360     -3.17607964846406      2.49318433597086
