30
Coordinates from ORCA-job 4391opt
  Br  0.69009853714275     -0.64321843806722     -0.56334670282916
  C   2.60675851419310     -0.46690064924508     -0.34743688761618
  C   3.07107525607559      0.84481939449672     -0.34324900112994
  C   2.34979371282964      2.15415615760419     -0.49835721685798
  C   3.41594198876120      3.17294405612477     -0.04847793040984
  C   4.76539492492409      2.51047990373574     -0.37969014236163
  C   4.45923893209173      1.03563733604595     -0.25599459323274
  C   5.31908338559244     -0.01383740877916     -0.10120847763307
  C   4.83435699356151     -1.35952658985611     -0.01349677117751
  C   3.41892523385112     -1.58334431788032     -0.21510325900777
  C   2.84955130396726     -2.97737848997412     -0.34096951665027
  C   3.65247727535662     -3.89846702206625     -1.25738823498023
  C   4.92017378990225     -4.47508897555110     -0.65873116841508
  O   5.49147568803998     -5.39452346400981     -1.20484069365312
  C   5.43256824847329     -3.81486846471626      0.58768262877117
  C   5.82352628099433     -2.35568236024550      0.28663400695279
  O   7.04709683772480     -2.09066716593012      0.35054908058249
  H   1.43465144729120      2.21850778200735      0.09364624792908
  H   2.05969534965246      2.33004638699792     -1.54341764713116
  H   3.34107032857145      3.30419104921628      1.03342577151966
  H   3.29272352640691      4.15253337044028     -0.51364118211396
  H   5.57595670945590      2.83646272805151      0.27374988991809
  H   5.06197010169135      2.74156426328309     -1.40865331999431
  H   6.38736606188806      0.12853317107144     -0.00721531132124
  H   1.84344549333190     -2.90806593061409     -0.74538492291590
  H   2.73555578966511     -3.44747144823894      0.64154957169860
  H   3.94259718520414     -3.35708574247716     -2.16357641931241
  H   3.04551890470954     -4.74791943073562     -1.57931671143779
  H   6.33157390643774     -4.32706756654650      0.91919785984849
  H   4.67433829221209     -3.85576213414176      1.37306105296094
