25
Coordinates from ORCA-job 4394optt
  Br  1.06570848108468     -0.26223406717350     -0.23680062276069
  C   2.95152434896334     -0.03009866087393     -0.13858326512966
  C   3.48942439993790      1.23800543678537     -0.22044627186186
  C   2.80309672085855      2.56110033555762     -0.39743478163960
  C   3.92982409584060      3.58160476384757     -0.08062955568429
  C   5.25341439692428      2.83053258363345     -0.36733220300285
  C   4.87756164733003      1.38710264702696     -0.18034033744252
  C   5.70544011585127      0.28784888953827     -0.03696705530926
  C   5.13917185369520     -0.98074691456462      0.07254482599485
  C   3.76412935158041     -1.14896770061968      0.01903259106376
  C   3.81360937666760      4.78699678177585     -0.93278698303014
  N   3.73026429139345      5.76715271987541     -1.52929919732627
  C   3.90687066315297      3.93916078159693      1.38507363799701
  N   4.93186263125776      4.61821042873268      1.96942398656408
  C   4.30167523471621      5.37930651146223      2.86352652481117
  N   2.98839561643738      5.32575840151351      2.90241945601811
  O   2.69026170254114      4.41642811593826      1.85622463627141
  H   1.95739047576428      2.69887208486245      0.27500185270456
  H   2.44212986943933      2.66558316102450     -1.42571283738608
  H   6.03030277882094      3.17826817261367      0.31171698408886
  H   5.58103657247570      2.99987841075313     -1.39786273773413
  H   6.78045116753917      0.41352850588118      0.00334377353571
  H   5.77374091284044     -1.84876407569683      0.20067882345693
  H   3.32083879088918     -2.13183139979181      0.10089994505031
  H   4.82287450399811      6.03130408630126      3.55230881075058
