25
Coordinates from ORCA-job 4395optt
  Br  1.15334883311089     -0.21987899590188      0.01778693777486
  C   3.04661299260933     -0.03698807848763     -0.06049866139112
  C   3.63199661693217      1.17747292727447      0.24256613452548
  C   3.00397112487028      2.48074750676442      0.64624437815094
  C   4.16015920280318      3.49925243440471      0.47327206980516
  C   5.45213099189397      2.67016218469872      0.59653731401422
  C   5.02477845531529      1.28292339024878      0.19976916515776
  C   5.80827997497231      0.19947817627454     -0.15813441759967
  C   5.19571857381340     -1.00912779524673     -0.47469173971792
  C   3.81438321888514     -1.13601190542262     -0.42482686296289
  C   4.03428323431632      4.06355017896841     -0.93214093511601
  O   4.74107802653650      3.79119010841168     -1.86407561452866
  C   4.06933234916142      4.67021871060846      1.41298442479211
  N   5.05561151074602      5.57326447375625      1.38607614705331
  S   4.56651883460792      6.72408599426012      2.49635201518457
  N   3.08663797737056      5.97809590939579      2.90919199597283
  N   3.01195024885703      4.84205576389269      2.18857210978794
  H   2.68194489048824      2.47634704607405      1.69012433011971
  H   2.12276601100469      2.73344721780009      0.05199860510534
  H   5.79794087200334      2.68590865743680      1.63282095613299
  H   6.24680223859449      3.06825030798166     -0.03280970838364
  H   6.88637303715300      0.29468971770206     -0.20178156020885
  H   5.79423393819023     -1.86273848207505     -0.76781655073557
  H   3.33330269354469     -2.07262067871369     -0.67100584304240
  H   3.17984415221950      4.76022522989378     -1.04551468989053
