25
Coordinates from ORCA-job 4397optt
  Br  1.16124964196122      0.09671803414378      0.02034177066820
  C   3.05701872301331      0.05463331466462      0.05986139094111
  C   3.73178486198992     -1.18194045193788      0.04671427363314
  C   3.16192135327748     -2.57005104666646     -0.04274283375717
  C   4.37263667448174     -3.45465039306321      0.31625982463190
  C   5.61547920552874     -2.62038059155077     -0.04755632353411
  C   5.11169522236722     -1.20376643501920      0.04730627616426
  C   5.87237405090366     -0.02985699129540      0.07300931452903
  C   7.28685017635266     -0.08591411804124      0.05355825288613
  C   8.49305508987158     -0.12797408706129      0.03492512838115
  C   5.18886752031086      1.23166207150636      0.11330867497899
  C   3.76483265002902      1.23261245926113      0.10267330161369
  O   3.11144933379085      2.40857967390599      0.13717744434016
  C   3.79717811178789      3.65751501501795      0.19093894873740
  O   3.05865799692764      4.61218578863286      0.22686035497695
  N   5.13761693767316      3.65839812606284      0.19587470194790
  C   5.79100143272317      2.48804696237538      0.15896261508048
  H   2.80096526422376     -2.77579724157604     -1.05811534690379
  H   2.31387919536313     -2.72584726296897      0.62674877663132
  H   4.35029709303925     -4.42447686289253     -0.18246065371412
  H   4.36976746313313     -3.63496780520732      1.39308011841043
  H   5.95232973736693     -2.82776174681515     -1.06940501422693
  H   6.46614537749716     -2.80952624565253      0.60924056030287
  H   9.55450493993628     -0.16040523539388      0.01593902246266
  H   6.87544194645018      2.54196506957100      0.16549942081834
