32
Coordinates from ORCA-job 4398opt
  Br  1.36108195550050      0.78910228786505     -0.38276888980317
  C   3.23099124759376      0.44642633653839     -0.02651142372045
  C   3.69167526384760     -0.87628894210492      0.02160293577108
  C   2.92550638592660     -2.16032126625497      0.17784122530857
  C   4.00707831372804     -3.23662397827187     -0.05187409825526
  C   5.35109872460785     -2.55038590086157      0.26481759310537
  C   5.04254023065762     -1.09715593127140      0.05648745601602
  C   5.96484973919607     -0.00120731433083      0.00231083636556
  C   7.35009362580293     -0.17948227752187      0.09459072850129
  C   8.55490216616362     -0.33751205378848      0.17585968865667
  C   5.36388807357925      1.29244442761922     -0.17569596690701
  N   4.06680655505629      1.49451597536683     -0.19554490775987
  C   6.26383397727245      2.50436455058796     -0.24404429078114
  C   5.56734572616443      3.75803566549744     -0.78815140446040
  C   5.04557327733515      4.49599959124110      0.47244948279376
  N   5.45965782050317      3.71627774611310      1.64949994129282
  C   6.61890072283141      2.94896559187911      1.19237619964390
  H   2.09142528604271     -2.24232654283499     -0.52171627523225
  H   2.49747715143154     -2.22394492687751      1.18551632545336
  H   3.99786647264402     -3.53122002693033     -1.10327811520646
  H   3.83855228296449     -4.13622135966382      0.54284839613548
  H   6.16921246537811     -2.90247006627301     -0.36860961378722
  H   5.66490135988181     -2.73165458790149      1.30214588798818
  H   9.60335653792032     -0.47206869305377      0.27396374012511
  H   7.16219518167934      2.24596867758150     -0.80613738082367
  H   4.75615839295219      3.49135179913211     -1.46200192882500
  H   6.28532753873342      4.37934954077718     -1.32727808158395
  H   3.96121790532744      4.59826969281493      0.46532721496637
  H   5.48162344058304      5.49684307071595      0.54021595512582
  H   4.72054636215230      3.04316247877277      1.82991449812591
  H   6.82760917552604      2.10980423979435      1.85547969914966
  H   7.49670664101620      3.60400219564380      1.17436457262089
