28
Coordinates from ORCA-job 4402optt
  Br  1.35055887606419      0.37770331143970     -0.88074374354546
  C   3.06681526784375      0.11196615419885      0.00713309739426
  C   3.69375408555405     -1.12309506600211     -0.06332049116194
  C   3.08216674090173     -2.49603720177908     -0.08894463511986
  C   4.30449026167075     -3.40020348280740     -0.34677463724726
  C   5.52095640530611     -2.61140998623675      0.17566468628734
  C   5.06718279664204     -1.17979311345902      0.06229953080317
  C   5.84980983084918     -0.01099451955853      0.13236326558199
  C   7.34804358774805     -0.03204534695604      0.28680071117856
  C   8.10617000783590      0.14801007732870     -1.01623491904445
  O   8.88502025383054     -0.66754468057948     -1.46638982155106
  N   7.82577091696414      1.34420051333399     -1.64372158256795
  C   8.36048236633128      1.69530965884625     -2.86261593467604
  N   8.10322606508004      2.74323328132340     -3.53094576519071
  C   5.20711199432181      1.23400731640328      0.02178405379595
  O   5.74955672663358      2.34308864415826     -0.05717921972480
  O   3.81559007571708      1.25794164056559     -0.01133197767817
  H   2.31189794708385     -2.60246930962632     -0.85510137879511
  H   2.61010012238548     -2.72667219465101      0.87303361079741
  H   4.41788215531838     -3.54674015611693     -1.42241394533179
  H   4.20634497334572     -4.38475112034474      0.11311474678406
  H   6.43075191832780     -2.81577873895621     -0.39313905366682
  H   5.73657517669541     -2.86324037254863      1.22270024144421
  H   7.68524875451680     -0.97512074080300      0.71467667346205
  H   7.65291256121448      0.78392022985725      0.95106220897502
  H   7.12652622046434      1.94339505303654     -1.18448881003537
  H   9.07047736188590      0.96594443509650     -3.24303314629402
  H   7.41257654946742      3.31917571483695     -3.04625376487322
