24
Coordinates from ORCA-job 4404optt
  Br  1.11023869697010      0.22617567051935     -0.28295742737361
  C   2.98893018009653      0.01857951513728     -0.17171603863855
  C   3.58477516913500     -1.19796466906350     -0.10804588477636
  C   3.12176597543771     -2.54487507734018     -0.08436673369918
  C   4.25125507432506     -3.33865932728318     -0.02423045080340
  C   5.43427830438585     -2.55190275682651     -0.01003140560716
  C   5.05564111148473     -1.21294696450778     -0.05949727247035
  C   5.75839397660645      0.00049526538004     -0.06458688242944
  C   5.09506620786485      1.21941825067560     -0.09201897619654
  N   3.69840404932491      1.16583398484754     -0.15490234580636
  N   5.72981313162985      2.40509195621872     -0.13033133595245
  C   5.10853755878584      3.53396617463385      0.22232953523886
  C   4.09382050470576      3.68536743498255      1.23742518615287
  N   3.44065946370274      4.78599185244106      1.38494231002930
  N   3.72417572681579      5.66046411194664      0.33167166056866
  N   5.11833859199645      5.81053268821559      0.04204592976661
  N   5.74384856109749      4.73429087505020     -0.06719424233426
  H   2.09162952075367     -2.86230824217273     -0.10641625629315
  H   4.23703083846545     -4.42065315922083      0.00844370157777
  H   6.44673108142699     -2.92308192060282      0.03411141708155
  H   6.83844374898972      0.03509408278744     -0.03376236093402
  H   3.21078044452703      2.04506117956306     -0.25829390461589
  H   3.96319117457131      2.92224905411171      1.99913022963232
  H   3.40025090690064      6.58078002050689      0.59625154788280
