24
Coordinates from ORCA-job 4407optt
  Br  0.58315687883689      1.05745989142215      0.04394796699423
  C   2.92535304559134     -0.07377947481849     -0.00273657105612
  C   3.59739726438072     -1.26054497186639      0.09923417887810
  C   3.17983615867758     -2.61392556390484      0.20161778655241
  C   4.31923789905731     -3.38952630492362      0.27502737755763
  C   5.48679864600114     -2.57169960615291      0.22419762567973
  C   5.06352105495292     -1.26449057448371      0.11489859495672
  C   5.74171788113200     -0.01032904488020      0.05700594088707
  C   7.16619664194523      0.04098644855471      0.14499706598015
  N   8.31358847700460      0.04214992352465      0.21183155214566
  C   5.00136786430259      1.13562676471379     -0.05211630340546
  N   3.63904667682787      1.06716530920007     -0.08613978058257
  N   5.54192169369514      2.43313062970991     -0.12429305640126
  C   5.08947420120526      3.53753857468969      0.56783611939876
  C   5.87683709080962      4.56998468511946      0.15680940701461
  N   6.79517651441589      4.13897717122527     -0.76766914686360
  C   6.56906444959496      2.86310445887648     -0.91472358492710
  H   2.15408378140884     -2.94622258284220      0.21546257931201
  H   4.33302756860921     -4.46760453156787      0.36015417392917
  H   6.51157029732254     -2.90958663602288      0.26778089322963
  H   3.09453033574203      1.91774002774338     -0.19676973556688
  H   4.28457804095698      3.46593718873479      1.27896627532916
  H   5.83618926442910      5.59800001405075      0.47597535756511
  H   7.09832827310002      2.18690820389798     -1.56629471660715
