20
Coordinates from ORCA-job 4408optt
  Br  0.90672522609237      0.03408767816183     -0.21578434486472
  C   2.81000703881910      0.01038571759193     -0.08358287686164
  C   3.54316005337264      1.13994359080819     -0.02284049692576
  C   4.97951162042653      1.13050075820055      0.01092505479868
  C   5.42209008492065      2.48688756534669      0.01635477261254
  C   4.38803758540346      3.36433567568086      0.00099115274369
  C   3.07974523965623      2.59236468652196      0.03548349945108
  C   2.27244536413067      2.90899449353911      1.32306931270440
  C   3.04854219324489      2.66210223443367      2.53581742601170
  N   3.62269270142357      2.49312836128172      3.51253313461353
  C   2.23375977293404      2.97542056289343     -1.10521664048273
  N   1.57025754243492      3.34284067234752     -1.96604218309757
  N   5.81483390297229      0.07433397272605      0.01604283317849
  C   5.40910227828552     -1.17398841940253     -0.01100082909718
  O   6.03807478639659     -2.20752737389246     -0.00295911584459
  S   3.52814556300123     -1.56436071223786     -0.09019034649207
  H   6.47096176673926      2.74799915191033      0.02921241142208
  H   4.41612256399165      4.44247352127141     -0.00579223250805
  H   1.36630294588510      2.30334039047702      1.35692070485197
  H   1.98048176986923      3.96073747234054      1.31305876378614
