24
Coordinates from ORCA-job 4417optt
  Br  1.02402689766826     -0.07388007928318      0.40320192049303
  C   2.91253527906679     -0.07766587536794      0.16987416264406
  C   3.59026316878696     -1.24391063985138      0.08665772516254
  C   3.10327975158784     -2.59656252008310      0.08582968795363
  C   4.18995001551697     -3.40193432583328     -0.08901055518308
  C   5.38307093980035     -2.60622336920563     -0.18524850385925
  C   5.05033725955528     -1.27456157454320     -0.07196530637326
  C   5.88874012132856     -0.08201042087132     -0.06807790897804
  C   7.28188302568754     -0.35674381956181      0.06939381153937
  O   8.25566730498692      0.42774521816225      0.13456111636207
  C   5.28066850855947      1.20952827073483     -0.14613153031606
  S   3.55662725886206      1.48077174478596      0.04947853617300
  C   5.83189293611169      2.53531039479104     -0.42354189602688
  O   5.09049549280196      3.52137172243768     -0.47144355252555
  N   7.18258066968696      2.65128113348975     -0.66757395303336
  C   7.75138631686573      3.84588656883563     -1.02415732706322
  N   8.99279214982298      4.07109760536893     -1.20259519702223
  H   2.06886270513654     -2.88477657858365      0.17961710776596
  H   4.16797807383851     -4.48117275269561     -0.15387529245044
  H   6.36809898465444     -3.01755057321793     -0.33620142499262
  H   7.50686584129293     -1.42453004248283      0.15809715738601
  H   7.77329298958546      1.82881330217128     -0.41736026622613
  H   7.02855703129570      4.64458566235990     -1.16431604307106
  H   9.53514727749999      3.22313094844357     -1.02921246835848
