29
Coordinates from ORCA-job 4425optt
  Br  1.07212665822389      0.01441511571633      0.18786625879801
  C   2.97289047011944      0.03638869051501     -0.00160011699943
  C   3.63385030128692     -1.16089813609698     -0.04808492386459
  C   3.09668022653484     -2.57772855451134     -0.07198909581341
  C   4.34974531943564     -3.41318798362738     -0.44757810325384
  C   5.56028500925146     -2.59232449092650      0.02870476071726
  C   5.04008080193248     -1.18332969104804     -0.03209088266085
  C   5.70027178536910      0.04381313781552      0.07501804226991
  N   5.09238731581594      1.20471953794007      0.08376448106389
  C   3.71484377067025      1.27238181318848      0.00310552038683
  C   3.16935205288244      2.58571486875482     -0.08582491092359
  O   1.97997681358786      2.91863640792684     -0.24745299177175
  C   1.98582087704910     -2.84094647885003     -1.04193773380309
  N   1.08676589999561     -3.73127008466423     -0.87853489223590
  C   0.27188641102263     -3.71723504665995     -2.09878956241476
  C   0.63341160194704     -2.39823018846480     -2.80262028907223
  N   1.96861160323776     -2.16509067286258     -2.25768318863354
  H   2.72544353721464     -2.85978227850222      0.91626004974371
  H   4.38288686642388     -3.50282031233905     -1.53537946419879
  H   4.30055844622164     -4.41747206621816     -0.02780216716981
  H   6.44076098066405     -2.76710067383573     -0.59449863677108
  H   5.83419409350805     -2.87567380990593      1.05381899806827
  H   6.78713722664941      0.07143674163660      0.15358173287547
  H   3.95914585767735      3.35523836305599     -0.00483732939413
  H   -0.78895016859492     -3.79344832336612     -1.85995757645096
  H   0.53941632558262     -4.58046625621347     -2.71880534173679
  H   -0.04555074378093     -1.59263249450406     -2.50295718587852
  H   0.64395085319915     -2.47450065734258     -3.88937100692477
  H   2.28901980687262     -1.20560647661050     -2.21332444395153
