28
Coordinates from ORCA-job 4426optt
  Br  1.20347500409757     -0.46371897504882      0.48861603225751
  C   3.09445395080191     -0.38185621036381      0.36936043817572
  C   3.83407538603336     -1.50401899174354      0.06186042289904
  C   3.42269072840490     -2.91234835131981     -0.24100633938302
  C   4.75480740359134     -3.72211264959332     -0.11961655634530
  C   5.85618815746311     -2.67461857771638     -0.36465849972766
  C   5.22105985401168     -1.36103248098292     -0.00065371291807
  C   5.78735223315288     -0.12476471316142      0.24770421891285
  N   5.06168826985789      0.95657512404340      0.54952177776839
  C   3.74405513407311      0.82670749726829      0.60801822558724
  C   4.82975450060309     -4.84735930525958     -1.14879828539037
  O   3.91047180779214     -5.74998919702308     -1.16949164956720
  C   4.80799332027413     -4.26893362041134      1.31743431291251
  N   5.45545336652608     -3.78678607020170      2.31501037265221
  N   4.01714707796304     -5.38725705047203      1.45514730186136
  C   3.73489371328145     -6.08334193546762      2.60970960013240
  N   4.09396536032023     -5.86619974917929      3.80752055856062
  H   3.05203332867707     -2.98992195466876     -1.26823703195772
  H   2.63473693248235     -3.27344473149174      0.42046088294373
  H   6.09329729784602     -2.68997571432751     -1.43436568226057
  H   6.77931071906667     -2.87919026392995      0.17946189590271
  H   6.86331973504373      0.01401655683445      0.21129166926210
  H   3.16778776031366      1.71061528344999      0.85757049331315
  H   5.85425216462073     -5.08331439917710     -1.48271054347037
  H   5.94231642345741     -2.93846079520096      2.04589589207084
  H   3.70597337614585     -5.77326981670462      0.54438536201304
  H   3.08886808851057     -6.93777686034023      2.39960528231773
  H   4.70157890558795     -5.04722204781052      3.83296356147712
