17
Coordinates from ORCA-job 442optt
  C   1.02372968332940      1.80369157225994     -1.36883856471969
  C   2.22639892217194      1.30187168787685     -0.62521544603685
  C   3.49616781038956      1.54668254725149     -0.98332599560306
  C   4.72532604746623      1.23769568590016     -0.18652183704218
  C   5.63272894437843      0.22685759291551     -0.88481349726339
  C   5.43918569681157      2.57374587059581      0.00643674909768
  O   6.11796282586468      3.08508991543287     -0.94133183749441
  H   0.35101241720647      0.99390046289862     -1.67013273177187
  H   1.33002435347468      2.33537231068201     -2.27185696469948
  H   0.42616404024224      2.49925965443182     -0.76531131924556
  H   2.03723059327190      0.75100619439412      0.29456483359936
  H   3.69557287202071      2.09884338083732     -1.90185476371326
  H   4.41708019449587      0.84969116158403      0.79093346736365
  H   6.00651192325994      0.66405502316072     -1.81191581836523
  H   5.10217371824466     -0.70252646393591     -1.11123705015240
  H   6.49785762875015      0.00864377496419     -0.25038212810110
  H   5.00087232862150      3.21011962875044      0.79680290414781
