27
Coordinates from ORCA-job 4436optt
  Br  1.13720312125631     -0.04354642085643     -1.09561682941064
  C   2.73705308978575     -0.12007323871552     -0.00181925317906
  C   3.56222149478832     -1.24461235562949     -0.02058687496262
  C   3.08291720615165     -2.67484783679125     -0.04590253784767
  C   4.35252227245600     -3.46878588182640     -0.38318118273814
  C   5.50950851758028     -2.61838558958895      0.16798560774723
  C   4.97182608830025     -1.21342212354655      0.04487487895692
  C   5.68680377777641     -0.05080076164402     -0.06218100553865
  N   5.04070025295764      1.17257465214593     -0.36575835780386
  S   3.49369607075122      1.35273269133528      0.36706011960257
  O   3.75675123342459      1.46100699228980      1.78198277953499
  O   2.89226571934138      2.48339383701749     -0.28618749131555
  N   7.09002012470178      0.02936220794122     -0.04813576629756
  C   7.84555456758807      0.92670939703908     -0.73072258810225
  C   9.16450596418146      0.66038540158448     -0.42528701188261
  C   9.10005813870444     -0.43121335029970      0.45139232766830
  N   7.84745714364079     -0.80299056724896      0.68466471085252
  H   2.27697381607267     -2.82592529297558     -0.76644733340148
  H   2.68735869633641     -2.95506918365164      0.93896665683474
  H   4.45051495663787     -3.53933463203239     -1.46891027839848
  H   4.34263443639765     -4.48338088089848      0.01841316741568
  H   6.44340444304411     -2.76030620011752     -0.37456171320705
  H   5.71511514744418     -2.86077863043357      1.21495779672995
  H   5.59214650734848      1.97433750234323     -0.06240722605998
  H   7.39061750749847      1.63653562059531     -1.39965968962058
  H   10.03534315613419      1.17812211059701     -0.78807834825780
  H   9.90682654969939     -0.95968746663238      0.93414544268107
