26
Coordinates from ORCA-job 4437optt
  Br  1.06818213645237      0.01428518152189     -0.00007703957225
  C   2.96424199013047     -0.02733063365111     -0.07410947689272
  C   3.64517264376743     -1.25323493135062     -0.03595210973368
  C   3.11847610291525     -2.65386981033871      0.02232504906410
  C   4.35487610849024     -3.51485695746817     -0.34803075808647
  C   5.57597754940940     -2.64495933233320      0.05667559392248
  C   5.04314407064602     -1.24204973716546     -0.04600114383846
  C   5.72372919598648     -0.06473829249517     -0.11236109132401
  O   5.04712332712031      1.14729023402584     -0.14390215302290
  C   3.65116332512712      1.21425331255928     -0.11317236692612
  N   3.11910373185943      2.38652069776042     -0.12797831106900
  C   4.38779523207814     -3.82536386774009     -1.81880142142390
  C   4.62592037331732     -5.06020702501917     -2.34387267385602
  S   4.62629069716093     -5.05226735818106     -4.05966603328400
  C   4.30325345263585     -3.36951616114672     -4.09803148863997
  C   4.20213978844548     -2.84664017876195     -2.84840132637550
  H   2.28608785313723     -2.82796242050512     -0.66726485361110
  H   2.75029320631895     -2.91893931269478      1.02368380397775
  H   4.35685662394492     -4.46309478657019      0.19535702145951
  H   6.43770036424241     -2.83757114903963     -0.58796798915454
  H   5.87591270483512     -2.87611762735288      1.08549139928712
  H   6.79424787312931      0.06550985018933     -0.13710891897017
  H   3.86624113588746      3.07508308347762     -0.16154393034434
  H   4.80077337611709     -5.97773358780418     -1.80411223533642
  H   4.20221230134320     -2.85856857252356     -5.04180459142241
  H   3.99908483550202     -1.80492061739256     -2.63537295482696
