27
Coordinates from ORCA-job 4438optt
  Br  1.07233453965827      0.24805641064600      0.31116496908145
  C   2.94784072109967      0.04476114114328      0.06564673884102
  C   3.55539791765007     -1.22967913944595     -0.00163253220345
  C   2.97273400402289     -2.62011005453131      0.02343387673422
  C   4.18334701680397     -3.50465621254705     -0.35137187000175
  C   5.43526106016069     -2.70016824359978      0.03560712720189
  C   4.95467705969242     -1.27581175770859     -0.04349207016551
  C   5.68672318938903     -0.13126300899490     -0.07659758837687
  O   5.08042751545072      1.10734143354669     -0.09554161754353
  C   3.69140117287533      1.24848074216773      0.04075181559396
  O   3.28466103677967      2.39442235222691      0.10949232142320
  C   1.80301735917982     -2.82286395815205     -0.93705940973645
  C   2.02167628745088     -2.22990842780213     -2.33486334086186
  N   1.43994757854299     -3.27730289552555     -3.15570968600912
  C   1.36614667611898     -4.46553648635179     -2.48083855474416
  O   1.13230433349072     -5.55388988912283     -2.93884152048112
  O   1.58795863528841     -4.23531193931712     -1.17333734576613
  H   2.61061258681974     -2.88548476417024      1.02730168654763
  H   4.18134533718619     -3.67410620295547     -1.43165502194387
  H   4.13324834272209     -4.48550967406212      0.12108886192750
  H   6.28446356821186     -2.91182274396008     -0.61805915849302
  H   5.74550328634692     -2.94007777937796      1.05809576455115
  H   6.76399409517920     -0.06480818403455     -0.10212607846736
  H   0.88148877756270     -2.43219739728173     -0.51000019094409
  H   3.08364618929225     -2.07416335194017     -2.54168846457649
  H   1.50361374313430     -1.27767985595534     -2.43484852331057
  H   1.55622796989018     -3.32171011289390     -4.15292018827667
