26
Coordinates from ORCA-job 4443optt
  Br  1.25117560987071     -0.04362625995943      0.69306579236836
  C   3.03220285295416     -0.21055972409961      0.05833546300167
  C   3.68127579235305     -1.37780921806970      0.20853251877877
  C   3.14742931584212     -2.66412701069484      0.78603521461639
  C   4.11712732661297     -3.71814608914457      0.23520163101174
  C   5.46294416732891     -2.98698700170380      0.22944525456832
  C   5.04910162340784     -1.61108151068547     -0.21224787488198
  C   5.74024941834337     -0.75994313565969     -0.97131313338444
  S   5.14164223137296      0.80083993628338     -1.41114704136210
  C   3.59106165307422      0.98645263797139     -0.56637414733606
  N   2.98276230301298      2.10638162762854     -0.57098348900828
  O   3.66353713320677     -4.01157786878065     -1.06136887929608
  C   4.54786595663063     -4.81206199766093     -1.88343920093202
  C   5.45367385783950     -4.05028200046263     -2.81400803257620
  O   6.59677151113356     -3.59666530193883     -2.45319193085830
  C   4.96593584417102     -3.88229334368200     -4.13970833881637
  N   4.56365530332209     -3.77096861205069     -5.22599878833571
  H   2.11916953059188     -2.85765370688446      0.48577462794605
  H   3.18705860041323     -2.62532211628404      1.87973560106199
  H   4.14355690589158     -4.62828260420817      0.84844886437378
  H   6.20431070926677     -3.42766918079270     -0.43683680735256
  H   5.85101665938264     -2.94651378073198      1.25387627249178
  H   6.69837745858841     -1.02075981512428     -1.40411288091070
  H   3.51505518997833      2.82280697556055     -1.06040690489923
  H   3.87707355532955     -5.45020256696658     -2.46078513701574
  H   5.15796949008036     -5.44094833185861     -1.22152865325302
