24
Coordinates from ORCA-job 4445optt
  Br  1.12711736850829     -0.21054079274698      0.20810325919557
  C   3.01762110196625     -0.02902011375834      0.01972129288308
  C   3.82118255397850     -1.17611397526461      0.01710670247813
  C   3.28209189620422     -2.59184137386750      0.10888258053238
  C   4.52224295508888     -3.46626232553309     -0.17663430427974
  C   5.73653094555985     -2.59301283910126      0.16142478323492
  C   5.20730266375969     -1.18634151402434      0.02408655187952
  C   5.99730436132325     -0.03252574837566     -0.00474960548218
  S   5.25428213939284      1.54784566761524     -0.20071207650649
  C   3.46766704167319      1.31117226066127     -0.06595515849948
  O   2.79923567882991      2.33147958117000     -0.07683159912612
  C   7.41802488232051     -0.02580935388934      0.11284473870370
  O   8.14638189913791     -1.01275289599248      0.25555096152020
  C   2.18680814670680     -2.86974554947300     -0.89533057904749
  O   2.32433569957747     -2.81213367231467     -2.08992367957820
  C   0.82950634190460     -3.36675543145759     -0.39648573488073
  O   0.68819557443467     -3.99909866881620      0.61091989349672
  H   2.87371293936568     -2.77345256088285      1.10755853105601
  H   4.53309940254627     -3.69882673163535     -1.24229164229000
  H   4.49364665125027     -4.40328364006250      0.37975578203884
  H   6.58679564793806     -2.78356567520427     -0.48993344795076
  H   6.09520238424055     -2.75906110214646      1.18183226722991
  H   7.87580505744916      0.98198312488051      0.06762149751168
  H   0.00490666684306     -3.17233666978049     -1.10656101411947
