23
Coordinates from ORCA-job 4447optt
  Br  0.92155288871325      0.38997152548874     -1.90235326221765
  C   2.93183302353329      0.32257501828295     -0.35617297398130
  C   3.59779897976828      1.44646434084982      0.07072152147358
  C   5.00876723510889      1.30994563379699      0.35151793829712
  C   5.49769289194545      2.55512342524902      0.74339383753695
  C   4.41511158578351      3.45552211320770      0.69922164554765
  C   3.26307222590262      2.78455924630634      0.29550338870272
  N   1.96729388563200      3.29393237846723      0.04487354140148
  C   0.84244292853576      2.88825093309816      0.74017766152014
  O   0.80894763560820      2.37525151458692      1.82545530739342
  C   -0.35157964836304      3.23145966592445     -0.13247885252403
  N   0.24424683768728      3.96919449480884     -1.22874729537768
  C   1.62225491854105      3.85659499719252     -1.19827967137063
  O   2.39191400080236      4.21112670062083     -2.04726500115512
  N   5.65678061102654      0.12670363100754      0.19235395422157
  N   5.03290390195291     -0.89367372974630     -0.21544179576432
  N   3.68630687977851     -0.76145507574436     -0.47728446770665
  H   6.51703697250301      2.78342470844969      1.01226828877288
  H   4.46250285877613      4.51124580030900      0.92396065718719
  H   -1.07254427188058      3.82154532766955      0.43338024658195
  H   -0.79910313931230      2.28941510727375     -0.45673282713240
  H   -0.14399604728391      3.87982689523740     -2.15472263727001
  H   3.28476284524073     -1.62000465233685     -0.82334920413685
