21
Coordinates from ORCA-job 4450optt
  Br  0.87126440982512      0.36970540444506      0.44513704882735
  C   2.79055677455709      0.49053984143280      0.70835653494185
  C   3.55821855586692      1.43437030906147      0.00872122618733
  C   4.95202847289866      1.22970028523321     -0.30961838728407
  C   5.43679237967719      2.36752399740036     -0.96028388543513
  C   4.38601802754801      3.28835990950028     -1.06195620898074
  C   3.24737516804733      2.72131726707551     -0.47859258909088
  N   1.98051245322748      3.33875727271444     -0.38931256343822
  N   1.09754257060582      3.36058096338300     -1.44975041721154
  C   0.00953435629799      3.77990664229204     -0.95255531222134
  O   0.06304822949688      4.04600392640618      0.37723759020914
  C   1.36151882196478      3.74511937894297      0.76295017345631
  N   1.83441060550820      3.85905947881885      1.92848389646137
  N   5.66902865844173      0.07620376437122     -0.07289491762541
  C   5.13194567785509     -0.91083026653491      0.51975445367965
  S   3.50182783467749     -1.02944571846463      1.17371341874917
  H   6.44714267911674      2.48752815664433     -1.32103413563580
  H   4.42594691738449      4.27224518084531     -1.50575457812522
  H   -0.91975030507016      3.94056058210510     -1.47080729956107
  H   1.11071351646338      4.16655578024795      2.56884555469360
  H   5.70132419560970     -1.82076215592058      0.69236039740365
