25
Coordinates from ORCA-job 4451optt
  Br  0.94940287280447      0.09151629650885     -0.01995748424623
  C   2.85827305283123      0.08070329973376     -0.00210415122429
  C   3.53817107280346     -1.12709817327628     -0.02033624681627
  C   3.03980216004859     -2.54244715896718     -0.07890567174343
  C   4.29200159042310     -3.35759525051115      0.31355511439048
  C   5.49101533003120     -2.49185499675449     -0.10893463041425
  C   4.94014525590508     -1.08700339474492     -0.02867315497175
  N   5.68450277807553      0.00267592432755     -0.00907413236181
  C   5.02303090726469      1.16573621313117      0.02628731824571
  C   3.56634408022436      1.25932982815959      0.02929407689803
  C   3.25776719105093      2.66372387706738      0.07541627150634
  C   4.45477930405570      3.36004099407419      0.09858130552548
  N   4.09998196807155      4.68161049703620      0.14838930541325
  C   2.72491201289478      4.71338105966297      0.15346850045892
  N   2.18351285539841      3.52212990811470      0.11090813683341
  C   5.62624435824537      2.50638129967478      0.07080590436247
  O   6.83217438412736      2.83777972450650      0.08361917913206
  H   2.70692378412816     -2.79638748558212     -1.09246324917493
  H   2.19378762470234     -2.72592065418671      0.58577803579971
  H   4.30248863267973     -4.35424237678543     -0.12949080765443
  H   4.30572428230579     -3.47573028466463      1.39927483435534
  H   5.79211948268038     -2.71108853341749     -1.13932450873196
  H   6.37000286134531     -2.62493751499671      0.52178753654575
  H   4.72406255250626      5.46725149187052      0.17801456932910
  H   2.17982960539617      5.64404541001892      0.18908394854329
