22
Coordinates from ORCA-job 4453optt
  Br  1.59729902781785      0.25210856752794     -0.54748214894474
  C   3.47018690303716      0.15237311624304     -0.24079784912215
  C   4.07200844901901     -1.11315285634553     -0.13297286531694
  C   3.62324397287135     -2.44707095609990     -0.18753416337109
  C   4.73563952446549     -3.26461055409776      0.02622334732772
  C   5.89681185057308     -2.47494830873493      0.21664442742413
  C   5.48479308834513     -1.15245219715430      0.11543943640265
  N   6.18830234383482      0.02437355130619      0.21438008905584
  C   5.60245476860522      1.25879760111522      0.10683592251101
  C   4.19612573577816      1.32162018180848     -0.12946923819778
  N   3.63711222178971      2.57928978112888     -0.23745205805785
  C   4.27524421087749      3.80741509172980     -0.10842150934609
  O   3.61538219308837      4.83809179276030     -0.20772127290997
  C   5.68313029725113      3.70933349533882      0.13380791560180
  Br  6.59917359180898      5.33479032539118      0.34750654883255
  C   6.30454376101806      2.45804150269687      0.21932754115745
  Br  8.17814660552930      2.33583855815334      0.50610211886273
  H   2.60661941795514     -2.76316090462536     -0.36095630465769
  H   4.71824856040607     -4.34546719126629      0.04639131070133
  H   6.89984666694155     -2.82708644438263      0.40490295472101
  H   7.17801432164939     -0.00564997499556      0.39854889157246
  H   2.64567248733749      2.64652582250219     -0.41530309424638
