28
Coordinates from ORCA-job 4455optt
  Br  0.85140338147011      0.12997171407071      0.24275956199918
  C   2.75090538155736     -0.00435139345811      0.09328805822273
  C   3.47826660337007      1.16824239933567      0.03609689319240
  C   3.05111966073581      2.60737183587377      0.06635414838025
  C   4.37696395036258      3.34938232442653      0.34225783986777
  C   5.48407022599413      2.42965421477752     -0.20334834098658
  C   4.85689090162425      1.06046533005050     -0.11294866443417
  N   5.51401586521135     -0.08347038050187     -0.20262129961416
  C   4.78094634966059     -1.19725691272090     -0.12881342007359
  C   3.39044649219311     -1.23643369950227      0.03092130532967
  C   2.68610032506109     -2.56874523264666      0.12338315476369
  C   2.14768868866829     -2.87777442561321      1.53947200870663
  N   2.02471795949785     -4.32965176958325      1.45552824656105
  C   3.10054911877305     -4.70186273592939      0.55758631408642
  N   3.54800380638619     -3.67860476590121     -0.19221979433115
  C   3.55233999615082     -6.01026435469106      0.54404119910295
  N   3.91152225725823     -7.12717668351709      0.57836428819611
  H   2.28683647027886      2.80625297104713      0.81807269370716
  H   2.62678918463982      2.89251688702593     -0.90217254288017
  H   4.50165851672927      3.45369255816317      1.42166189527852
  H   4.39747408611986      4.34848999823269     -0.09177150697752
  H   6.41770319987533      2.49079610854742      0.35501681495485
  H   5.71272848441186      2.65657248201408     -1.24942742215330
  H   5.28522194477826     -2.15291858085923     -0.20275342220013
  H   1.81449345872398     -2.52121773371854     -0.55744333968090
  H   1.19092056848602     -2.40380429667911      1.75827500556308
  H   2.89485202527061     -2.55634014989395      2.27993811711487
  H   2.10737109671116     -4.78953570834922      2.35350220830432
