24
Coordinates from ORCA-job 4457optt
  Br  0.82699743728030     -0.33762986223103      0.03269963649640
  C   2.71457087326859     -0.10378151870217     -0.16248382206573
  C   3.52253318226899     -1.26988157100226     -0.08030345752620
  C   3.26227307637201     -2.65668610619939     -0.12360565470119
  C   4.48469176718777     -3.32703373725056     -0.01942032623335
  C   5.53394727613551     -2.37792638181454      0.09668938011604
  C   4.93556920024648     -1.12553217092348      0.05876152094455
  N   5.49452006344149      0.15046146668976      0.13633571436276
  C   4.69922158046865      1.26476415247261      0.02138861547614
  C   3.32284952500407      1.16954574103213     -0.10395031352694
  C   2.60278627134689      2.43625502915223     -0.27162508968696
  C   1.54797045931024      2.71816425149416     -1.05286549475418
  S   1.09714813826982      4.40518630551904     -0.94838080332078
  C   2.39523622746756      4.74005818694080      0.21057466479346
  N   2.69814074024088      5.83450199400314      0.79618510852096
  N   3.06322741236299      3.56491591616797      0.40671139177883
  H   2.28470328918746     -3.10447395945697     -0.22085351367358
  H   4.61570753859723     -4.40027449305050     -0.02129695377102
  H   6.58941459489466     -2.58554648589803      0.20502045204886
  H   6.49074882373048      0.25231774514982      0.06839015832863
  H   5.21282669030316      2.21038721081851     -0.07490696430657
  H   1.01783509274780      2.03240140862163     -1.68808039966335
  H   2.07211989549681      6.58369165902187      0.52435090357021
  H   3.76896084437009      3.50211521944524      1.12366524679301
