25
Coordinates from ORCA-job 4458optt
  Br  1.12757324441541      0.06397084109270      0.36271255535815
  C   3.01950821365082      0.05156023559065      0.12851786150787
  C   3.66987166577331     -1.17527181021875      0.03128200095746
  C   3.30010426556534     -2.53923644265097      0.07483753483158
  C   4.46433191821509     -3.28147413533477     -0.07800870273122
  C   5.58926769973534     -2.42375151362389     -0.21815815206055
  C   5.09790138421172     -1.12948691403334     -0.15120299109857
  N   5.73103337847255      0.08544328634321     -0.21038862700547
  C   5.07902797982651      1.28304743202687     -0.12216747565860
  C   3.68066932644308      1.25455863699702      0.06236149741798
  C   5.79490166939918      2.51831213827619     -0.21435072837425
  N   5.12287278760931      3.66438706302455      0.02781296321964
  C   5.81635423242294      4.83091807416295     -0.02864744843236
  N   5.34329965587237      6.01987764760626      0.12208101859778
  N   7.19941225558028      4.75241368934092     -0.24946162292591
  N   7.86162858719522      3.64877359943191     -0.64282084106440
  C   7.17533801418692      2.55251932762704     -0.60041877331376
  H   2.29711754218264     -2.91498473916782      0.20127112690705
  H   4.51450413064858     -4.36153831725894     -0.09002710702726
  H   6.61861389879062     -2.72052003397075     -0.35151129315496
  H   6.73455463593058      0.08739130254795     -0.28227897211522
  H   3.17369381798514      2.20295744052662      0.13613163930297
  H   4.34810020895664      5.93283917408801      0.30595610633818
  H   7.68398488376498      5.62351340394518     -0.38048862439705
  H   7.71633460316535      1.67278061363118     -0.92803294507907
