22
Coordinates from ORCA-job 4459optt
  Br  1.05097779743867     -0.04746135697596      0.11103370225418
  C   2.94715846390460     -0.04133762623032     -0.04316927865804
  C   3.62632961126862     -1.24460436593013     -0.00688506687288
  C   3.28907174365910     -2.60712921037542      0.12169792688721
  C   4.48355424213573     -3.32222882952812      0.08819736936961
  C   5.59446548366598     -2.46125589928108     -0.05989612361277
  C   5.07675857759523     -1.17473502122355     -0.11737259652311
  N   5.67584786908740      0.03310246285724     -0.24407237484399
  C   4.98819961893837      1.18382145577982     -0.27257403788202
  C   3.59827967773796      1.17421550114613     -0.17747102827322
  C   5.78102202327241      2.41777458584426     -0.41549939688562
  N   5.12159457572756      3.52971815491139     -0.52963202170025
  O   5.91457528708545      4.62757864404338     -0.70746385834029
  N   7.17303982390099      4.65380743512020      0.11698529434093
  N   7.74162946712604      3.55936279767109      0.20257204366850
  C   7.22615965115306      2.38528186150869     -0.29088319864355
  O   7.93130751568788      1.34197698299845     -0.37315240695667
  H   2.29208117812066     -3.00367915660155      0.22527898999671
  H   4.55686748752240     -4.39843318135215      0.16603917194517
  H   6.63474201542509     -2.73969606192913     -0.11046991162334
  H   6.70734203876911      0.16355402243309     -0.31674931566049
  H   3.06899585077736      2.11336680511363     -0.20251388198605
