23
Coordinates from ORCA-job 4470optt
  Br  1.04812873450397      0.19539874554127     -0.30100149223946
  C   2.95520397968818      0.09342116502522     -0.15675748431545
  C   3.57735939092382     -1.15862967116238     -0.09973966929361
  C   3.14185613634267     -2.49930297912648     -0.01578846989241
  C   4.27213176413949     -3.28841084382742      0.15416348853696
  C   5.43781959662347     -2.47562723974578      0.17255952713979
  C   5.00712338359741     -1.16605085037476      0.00487623968411
  N   5.69039140593823      0.06372669641901     -0.00810491066928
  C   4.91791931799820      1.22099961434267     -0.00705644601801
  N   3.60541048821976      1.23020610597699     -0.09401424853523
  C   7.05325799215533      0.14487488556695     -0.02208194226112
  C   7.85830128776606      1.21239922150806      0.37704490987894
  O   9.18202597804916      0.92032429380358      0.09565337204167
  C   9.19370831096716     -0.30382633888125     -0.46468853647295
  C   7.95746637082029     -0.83102375184087     -0.56326784514350
  C   7.61770335235633      2.40234612313183      1.07339119039709
  N   7.43573327331276      3.38916549750605      1.64825031923723
  H   2.11452064482589     -2.82564969932037     -0.05753985979839
  H   4.27679983037167     -4.36375217108898      0.26519581280320
  H   6.44264021725987     -2.82573303676058      0.33855342751629
  H   5.45694710886583      2.15415255795002      0.00941085649987
  H   10.15865679369820     -0.67421546904577     -0.76625599824276
  H   7.68789464157619     -1.77079285559699     -1.00880224085300
