22
Coordinates from ORCA-job 4471optt
  Br  1.02152200461919      0.12962139268268      0.22527530890091
  C   2.91921047142125     -0.01633492371339      0.16274985717307
  C   3.50634041437105     -1.24898539412156     -0.10090151545030
  C   3.09024573609552     -2.55120437444385     -0.36316560603518
  C   4.25138739395997     -3.34416003167348     -0.53194994390165
  C   5.42328479992362     -2.51619035499778     -0.37438154210946
  C   4.97250946624737     -1.26071014663608     -0.11760226933930
  N   5.61341545691515     -0.06582608253196      0.11735170831269
  C   4.90226246646261      1.07222076484239      0.35933901807268
  N   3.60344759244538      1.11590251508207      0.38665601676272
  C   4.32027711356901     -4.72926710550351     -0.80428231796290
  N   5.51740542447533     -5.33537432072758     -0.92630784707916
  C   5.52056753881671     -6.65188599964831     -1.17838927369432
  O   6.49272693070038     -7.37832843588115     -1.32347328332618
  N   4.24302180971744     -7.24323379047586     -1.28399350802077
  N   3.06478864247875     -6.60739207783807     -1.16257867134921
  N   3.08916107159380     -5.37416624587596     -0.92616341627227
  H   2.07353142546289     -2.90141974367926     -0.42395368184408
  H   6.43867753670041     -2.86990258772092     -0.45229856524485
  H   6.61919443871721     -0.03060073125756      0.11362456049278
  H   5.47802702844269      1.97053846513714      0.53663785241257
  H   4.18299523686423     -8.22930079101797     -1.47419288049780
