27
Coordinates from ORCA-job 4473opt
  Br  0.69630965597758      0.49611980710955     -0.84087935168284
  C   3.26418083676081      0.31287849405787     -0.55877949312029
  C   3.90217187656475     -0.89702300753124     -0.53002635155373
  C   3.66592785401075     -2.16129314539702     -1.12418091195165
  C   4.70270637685523     -2.99127495592753     -0.73264565986519
  C   5.61635856813078     -2.29615239288099      0.10932066603165
  C   5.13894171849809     -1.00576203480846      0.24586310213363
  N   5.63337468672886      0.05299584352117      0.95681223876394
  C   4.96454929438648      1.14778838546112      0.89073312359243
  N   3.80083607118228      1.32376025208395      0.16376065319180
  C   3.24707589090362      2.66523258054229      0.04642929733319
  C   3.89188631092323      3.44853770619800     -1.10780474635269
  C   3.88319881699488      2.68308326291385     -2.38061898501734
  C   2.99099944952745      2.47327178894002     -3.37093360349709
  N   3.50608002366891      1.54605696090549     -4.26419118590679
  C   4.65179033232606      1.23996654069774     -3.77104987248158
  O   4.96606810988372      1.89270932133966     -2.63988444845093
  H   2.81931262953255     -2.40660046135009     -1.74593351935804
  H   4.80555163205766     -4.02926304749375     -1.02093730731438
  H   6.51027535163719     -2.69498633479124      0.56502764553355
  H   5.29795759772990      2.02803255597191      1.43288555866141
  H   3.40613603279633      3.19408240874733      0.98792040251588
  H   2.17885859238292      2.55061425619433     -0.12681742462059
  H   4.92673700518612      3.69549386137169     -0.85859633681515
  H   3.34680465352451      4.38468753167648     -1.23986691607740
  H   2.00259939479213      2.88564010830695     -3.47837105066202
  H   5.37531123703703      0.53540371414090     -4.14523552302975
