25
Coordinates from ORCA-job 4477optt
  Br  0.93881145035138     -0.07846113997966     -0.14897405488386
  C   2.82730027047197      0.03258826328205     -0.04851207486239
  C   3.57984583854263     -1.15534759762889      0.05719465625925
  C   3.25670955345019     -2.52994462966487      0.14633265184888
  C   4.45175200142866     -3.24094431154839      0.23422399667227
  C   5.54665991622770     -2.33270290578476      0.19527525962096
  C   5.00381063196095     -1.06404837621947      0.09093727414327
  N   5.64497465668587      0.18391842726271      0.01133612523671
  C   4.86368951188500      1.32993496225917      0.01025926579990
  N   5.61620005623628      2.52527793574557     -0.02728881406979
  C   6.69776589604648      2.76740646445278     -0.84526235373722
  C   7.14654692140737      4.01219802801773     -0.50758053187779
  N   6.37695184397123      4.54444597128304      0.49342426953980
  C   5.47870078136263      3.62705410030343      0.75887301374252
  C   3.47318090702886      1.28245910443215     -0.07928570208936
  C   2.74818622464303      2.50120844282819     -0.23167131933715
  C   2.14646985737545      3.53353245902899     -0.35671926642032
  H   2.25599114426228     -2.93437938102804      0.14696585765006
  H   4.54010444955461     -4.31498863537104      0.31800679290482
  H   6.59747166930360     -2.58218855330054      0.23522204808921
  H   6.53178742664458      0.26986161935751      0.49082643511390
  H   7.01253329388150      2.04191217571551     -1.57422577909918
  H   7.97864111696934      4.55143792234572     -0.93059030473206
  H   4.69462318358450      3.69116258883782      1.49495803719268
  H   1.61229139672385      4.44460706537327     -0.46972548270512
