22
Coordinates from ORCA-job 4481optt
  Br  1.13459728871909      0.24432481506444      0.40517160907010
  C   2.98119406439236     -0.05965614331892      0.18234265125313
  C   3.54037565193599     -1.27270595847433      0.09166298000581
  C   3.10494380859569     -2.63579790615810      0.10814760886071
  C   4.23848704016458     -3.39167711389787     -0.04597657829178
  C   5.41130241563936     -2.56816132938907     -0.15912064984139
  C   5.00398142847209     -1.25889321655956     -0.07783570190636
  N   5.70274594102510     -0.09893820585407     -0.12205407568278
  C   5.05657596087273      1.02478092176633     -0.03538197595811
  O   3.67674615678996      1.05919759263165      0.11997614359265
  C   5.66309753251431      2.31836408509731     -0.13487130907862
  C   7.01823312023165      2.33913507743408     -0.54905953834621
  N   7.82597371832801      3.36126732957645     -0.77944133660342
  N   7.47561541308577      4.60918680964243     -0.66372002152813
  S   5.89689874929787      5.01814530630121     -0.16380907044155
  C   4.96600273021408      3.54338508546297      0.19001644945766
  N   3.79620506544983      3.65634579797208      0.69850751712940
  H   2.08800574733312     -2.97687072177470      0.21430860324196
  H   4.25219516509859     -4.47307626626976     -0.07907877911777
  H   6.42617075395516     -2.91044820735917     -0.28443508545594
  H   7.47806809131088      1.37420122336251     -0.71649075194111
  H   3.56658415657371      4.63889102474410      0.84414131158175
