26
Coordinates from ORCA-job 4482opt
  Br  1.65460213735909      0.34898397784697      1.78021881297159
  C   3.02603294670845      0.25183974867623      0.37613062287406
  C   3.66329857688554     -0.96824968818404      0.22328463511142
  C   3.13830198746149     -2.36215658103576      0.40148393103638
  C   4.21291104326520     -3.20916949343594     -0.31644494144332
  C   5.50799536629640     -2.37732128283891     -0.25645106697847
  C   5.00385460010753     -0.96865380494273     -0.08615760600253
  N   5.80917475822483      0.10756250016541     -0.10724400989886
  C   5.26684061138564      1.30856708905701      0.06778565704888
  O   5.91936355279196      2.35789052318097      0.13006907952538
  N   3.80111134626994      1.40166526649410      0.15533956339823
  C   3.08335951570473      2.55807053344592     -0.21440785142591
  O   1.91522916292651      2.50513887966951     -0.54575618189021
  N   3.78483475275617      3.72686143622386     -0.14875273105843
  C   3.21674180492217      4.90662108533762     -0.72444267803128
  C   3.11606947257850      6.02890108693782      0.22700565781816
  N   3.04392532012764      6.92849156938202      0.93342991717234
  H   2.14128311713076     -2.50075960583644     -0.02078989707818
  H   3.07183462010112     -2.61484335076207      1.46562628365299
  H   3.91908418828908     -3.33810555558897     -1.36005024472255
  H   4.32558533942652     -4.20280542712716      0.11940320140739
  H   6.13557129002122     -2.48963695973111     -1.14286286520963
  H   6.12681039518985     -2.64437880372598      0.60774637781737
  H   4.79164971009280      3.60906121125841      0.01361452588178
  H   2.20994693619183      4.66391295412807     -1.06761505631527
  H   3.79658744778438      5.26251269140514     -1.58116313566129
