23
Coordinates from ORCA-job 4487optt
  Br  1.18138956391040      0.14354472732898      0.47878073074742
  C   3.04546719460320     -0.01554183334238      0.18618058453023
  C   3.62726044068488     -1.25965974837220     -0.04194512815854
  C   3.22312828451227     -2.57915001017636     -0.12856096528994
  C   4.37479725904158     -3.37442724857575     -0.40499083181788
  C   5.52537636037451     -2.50248457900562     -0.48567789392664
  C   5.07725786463122     -1.22916892079416     -0.26734456140412
  N   5.71303800834221     -0.02969862588606     -0.22987564852192
  N   5.13660563235916      1.16434337904636     -0.00020888900660
  C   3.83432232572481      1.13908210834097      0.19839279964409
  C   4.44430430063263     -4.77552810759191     -0.58878132306134
  C   5.62618241753355     -5.46125311129685     -0.88053860627419
  C   5.61326031529693     -6.84708886154386     -1.05534693093908
  N   4.57249483215227     -7.62417629923072     -0.97082749447756
  O   3.38070719201949     -6.96065291780591     -0.67526218140296
  C   3.23958702061144     -5.60970990939440     -0.48686545805521
  O   2.11851878346256     -5.23364734293090     -0.25054443987018
  H   2.22122536926714     -2.95115630270360     -0.01318001900871
  H   6.54462500013079     -2.79508606786205     -0.68148465633456
  H   6.70599747377058      0.02021401688021     -0.38042084562208
  H   3.38240751689507      2.10574316002655      0.37858464343895
  H   6.56354844938673     -4.93345462055422     -0.98093095073450
  H   6.52549839465654     -7.38604288455608     -1.28715193445470
