28
Coordinates from ORCA-job 4488opt
  Br  2.58266504516608     -0.51170709503824      2.83476665110485
  C   3.53961042625737     -0.36609522019130      1.17776659513061
  C   3.84979677986422     -1.54518469425385      0.46943484642814
  C   3.67011525167838     -2.93522833016189      0.61680449418198
  C   4.30140055973867     -3.54469633228888     -0.46978677898377
  C   4.88261075689539     -2.54817364382926     -1.31041229671226
  C   4.59249109167826     -1.32521793528627     -0.72106068718627
  N   4.83242572657187     -0.01964056932380     -1.08818214577328
  N   4.57776121069528      1.07780043811798     -0.27569127271750
  N   3.90077451186471      0.83355204817506      0.82801370995516
  C   4.45838079425897     -5.02251052501914     -0.68228421886572
  C   5.86593931577979     -5.51037985664884     -0.32414503944698
  C   6.07186070010505     -5.36585478690934      1.16968544861132
  N   5.02299474182226     -6.10692544662256      1.86496017881376
  C   3.70398548237963     -6.08343255413719      1.43270010612117
  N   2.68724881709399     -6.37026095070909      2.16378036520757
  N   3.51432059204571     -5.82324997754441      0.09602913460880
  H   3.14392585450604     -3.42874876043264      1.42125078470003
  H   5.41745482815177     -2.71768342471029     -2.23497627092556
  H   5.48155948844946      0.20022152984751     -1.82266741224144
  H   4.28049613104041     -5.26200617594517     -1.73551721091410
  H   6.60022541667153     -4.90917927588200     -0.85956795046685
  H   5.97622918618966     -6.55905279030015     -0.61386506172958
  H   6.05045723616710     -4.30263604207793      1.43148688694107
  H   7.03518059708452     -5.78138787208384      1.47111101106743
  H   5.08556440175295     -6.07547883552098      2.87001293583294
  H   2.97432247724053     -6.58759809960823      3.11307432234193
  H   2.54120257885006     -5.61724482161494     -0.07972112508348
