26
Coordinates from ORCA-job 4491opt
  Br  0.60842036595205      1.15895955708244      0.06889800132866
  C   3.12841884611409      0.54862753439595     -0.05356477603528
  C   3.53221371931321     -0.63385432929420      0.51977446668957
  C   3.13843411894807     -1.43539869275395      1.59968192380003
  C   4.01502778752485     -2.52251740190120      1.63794219556212
  C   4.96228094987498     -2.44078330671762      0.59761034038463
  C   4.67453030346322     -1.27743666171416     -0.10880269238699
  N   5.26431082932851     -0.76840644229894     -1.21666638604977
  N   4.85793572600239      0.30491575420295     -1.73235136411856
  N   3.78622069928162      0.96277656601107     -1.13090945237040
  C   3.47920395470580      2.22564937030639     -1.78287479779760
  C   3.85853901608459      3.45652519472826     -0.94585339781586
  N   2.87866279449339      3.69219514810536      0.09692366383928
  C   2.68188394354520      4.92331637442207      0.59508595686771
  O   3.31656360360547      5.91478685903082      0.28833236476926
  C   5.22213878369427      3.33203571235555     -0.41220055130050
  C   6.33238592888964      3.18744022255072      0.00987943142885
  H   2.30734158512649     -1.23637988406166      2.25771832061634
  H   3.96836039642639     -3.32364325701079      2.36307322567571
  H   5.75049274932012     -3.14333316829127      0.37492920575347
  H   2.40948984754797      2.25867993123825     -1.99322285919869
  H   4.05351521751819      2.23205319571047     -2.70581027452829
  H   3.83988459059989      4.32731459926979     -1.60812579501890
  H   2.24296805174984      2.93643515316037      0.35086624571534
  H   1.85845923451795      4.95139033906209      1.32554406696016
  H   7.31531695637080      3.05265163241099      0.39112293722969
