25
Coordinates from ORCA-job 4498optt
  Br  0.87629518625789      0.18542569689543     -0.38070110358887
  C   2.75227893211039      0.08526774622952     -0.21816579242719
  C   3.41255692997536     -1.15862978626024     -0.27125922996274
  C   3.01545254553695     -2.49763644595210     -0.41082261684663
  C   4.16620699422758     -3.30072107226201     -0.36510976214426
  C   5.31292080180599     -2.45685287528171     -0.19586367747619
  C   4.83645176395468     -1.17080764051538     -0.14514875075436
  O   5.58752794037944     -0.02649430235873     -0.01216026791858
  C   4.90973791182670      1.14368678551542      0.03880255235027
  C   3.54037374481835      1.24576653855737     -0.05429322939180
  C   2.97802760262739      2.55666916937375      0.02862708768810
  C   2.51062324808382      3.66050934778995      0.10434875766548
  C   4.17865827086584     -4.75313451151549     -0.46781255391652
  N   3.24902564425972     -5.50797370459643     -0.93496935707829
  N   5.34847719761606     -5.34729137412502      0.01302718547265
  C   5.70258224360863     -6.68149317634025     -0.00261879298674
  N   5.06596562578320     -7.68573038948291     -0.43533539843217
  H   1.99365404477952     -2.83990328081646     -0.48012830296034
  H   6.35476957766927     -2.74136599075164     -0.19192147891543
  H   5.55305360629325      2.00018500353016      0.16011766261001
  H   2.08376703570915      4.63074162835582      0.17371913307287
  H   2.49781084060813     -4.91949013599388     -1.28322815736444
  H   5.98805306559803     -4.71818696923030      0.46703523781286
  H   6.69238971197028     -6.82804382404433      0.43674054513942
  H   4.16333953363428     -7.37749643672050     -0.80087968964711
