24
Coordinates from ORCA-job 4502optt
  Br  1.26553738272253      0.86754508312266      0.16318764943263
  C   3.12579170253278      0.45466888759118      0.07010407507691
  C   3.57685400902533     -0.87405451077071      0.11206997218718
  C   3.01547638999983     -2.16768557114596      0.21548177863927
  C   4.06528325604113     -3.08118697329665      0.17841814003996
  C   5.30771070474297     -2.38873635457061      0.04877185860071
  C   4.98837825037662     -1.05229219629673      0.01173888947822
  O   5.84587897451585      0.02324204834160     -0.13425001992237
  C   5.24793501274572      1.24543160972795     -0.11223248803596
  N   3.96724177760219      1.47370551673632     -0.03787299372271
  C   6.21955643377730      2.36738043364415     -0.34286220133494
  N   5.52902785747024      3.63636355185422     -0.52775100194926
  C   5.76010771728812      4.47648445324872      0.55420614312131
  N   5.23680948184706      5.58743871185196      0.86945748605749
  N   6.77216206875663      3.89374636514311      1.30502736130406
  C   7.13665420089004      2.64836928295333      0.85685449439682
  O   8.01238117421762      1.96137773479679      1.30770773396862
  H   1.96297421286938     -2.38761733340506      0.30989679785799
  H   3.96384618200260     -4.15528016031171      0.24338769817259
  H   6.29541104193024     -2.81886636897284     -0.00621676787512
  H   6.86481903073450      2.11663449105541     -1.19335822443877
  H   4.54464008712580      3.50783588314036     -0.73888133379471
  H   4.52841417178471      5.84939172719570      0.19027409240039
  H   7.15410887900071      4.33710368836681      2.12384086033970
