24
Coordinates from ORCA-job 4507optt
  Br  0.93652674463690      0.01902502054288      0.32762159166468
  C   2.80825920106478     -0.04529773243474     -0.28063049968542
  C   3.51044926853855     -1.25971551957324     -0.24071066679742
  C   3.18491633832877     -2.60782188814959     -0.48196464219264
  C   4.35958846916519     -3.35421946632964     -0.34746777691636
  C   5.44447427399157     -2.47776539745324     -0.01398508307131
  C   4.90231216024325     -1.22357662445931      0.05219174421082
  O   5.56577518048727     -0.05259945113182      0.38697240393429
  C   4.89510504966968      1.10617013937400      0.42814174075153
  O   5.46393015357873      2.13856355450156      0.70020946660821
  N   3.55541146088729      1.06651523278655      0.12824394559077
  C   4.46074792891492     -4.79239478618742     -0.49970884238912
  N   3.54258353171549     -5.65434051121533     -0.71035941393289
  O   5.75036653347236     -5.23049226141285     -0.38783529621020
  C   5.92026595290151     -6.62565193685192     -0.50582012132471
  C   7.34309949339666     -6.93811531707765     -0.37457094722662
  C   8.50113406757238     -7.22503117774500     -0.27251414674291
  H   2.19924051246181     -2.97406742589932     -0.72790112076724
  H   6.46666662217011     -2.76348967968374      0.17025860113876
  H   3.13203807590064      1.97969864596194      0.08949943577097
  H   2.64639047018739     -5.18019151149937     -0.75838989838661
  H   5.54217338427937     -6.97679453635718     -1.46900283478608
  H   5.34597140119532     -7.14589802701907      0.26486942339781
  H   9.53257372523996     -7.46450934268640     -0.18114706263830
