22
Coordinates from ORCA-job 4512optt
  Br  3.95260327993083     -0.33899275442232      2.99477527397389
  C   4.49434261003919     -0.44923829373597      1.18129450764045
  C   4.18846955797216     -1.61732330076070      0.52784128339644
  C   3.53379360607748     -2.80533106454591      0.96321568179560
  C   3.50169534131983     -3.67464350440224     -0.10290630035691
  C   4.11975626187031     -3.08733645847374     -1.24643950947962
  C   4.54344606104474     -1.83183380506946     -0.87454182850301
  S   5.33979487666789     -0.65130909332079     -1.80612748656777
  C   5.57630608517640      0.63235715618353     -0.71882842811679
  C   5.16193302682028      0.66270502400842      0.59369276851401
  S   5.43216576432586      2.16417509257211      1.49412863390048
  C   7.27421597108596      2.13678090164679      1.61793661129523
  O   7.77671763575984      2.29259629671931      2.72566596584804
  C   7.99095100074996      2.02589892841639      0.39401388504885
  N   7.58349615845768      2.03889600420164     -0.86141139925733
  C   6.36141864580593      1.74096074072102     -1.36192201424287
  N   5.88903750901256      2.17967181560277     -2.47993674416517
  H   3.14600525167514     -2.96957421487771      1.95487856748587
  H   3.07153834205025     -4.66638268499823     -0.08257111164102
  H   4.23652511974884     -3.54069666978074     -2.21827667789288
  H   9.06866166341991      2.05731092763174      0.54484159279050
  H   6.55212623098868      2.86330895668408     -2.84632327146599
