22
Coordinates from ORCA-job 4516optt
  Br  1.03490976091158     -0.05436655635658      0.40323468668370
  C   2.92081050687004      0.00758638746439      0.15070115597413
  C   3.61474440663728     -1.20782047235763     -0.04749272597029
  C   3.17435648183874     -2.53672081331954     -0.08166133782887
  C   4.29322375549709     -3.35837113978057     -0.31540322694379
  C   5.45082697294493     -2.53715086311216     -0.43047852558968
  C   5.04060037982341     -1.23057040386874     -0.26554678896501
  S   6.04677707158857      0.19216584203007     -0.30595516209636
  C   4.89108339948991      1.44586565140384     -0.00850910806009
  C   3.54214486703082      1.25257481700428      0.17290328208818
  C   4.29410942666597     -4.78634066967530     -0.42684562634032
  N   5.38742372910240     -5.51375612104431     -0.70281224984728
  N   4.95875788512257     -6.76493994000181     -0.70923817100815
  N   3.69696999898012     -6.96470647750853     -0.46900579718941
  C   3.23063489736094     -5.72727285069648     -0.28189565240916
  C   1.85506991154425     -5.52612251509566      0.01568768528260
  N   0.74151830201952     -5.37877175929541      0.25536279160992
  H   2.15100892501785     -2.85381835396027      0.04934546963230
  H   6.45643779606652     -2.88596845751546     -0.60969966969222
  H   5.32085085676343      2.43631827492226      0.02459452789175
  H   2.93133462649089      2.13015935931532      0.34615572658669
  H   5.58240604223314     -7.53197293855169     -0.89244128380865
