21
Coordinates from ORCA-job 4517optt
  Br  1.23623672522647     -0.04179980494823      0.20118744617352
  C   3.11877748357067     -0.13034306481021      0.01305826599065
  C   3.89878614712662      1.05772052023221      0.02251444160939
  C   3.54464514845430      2.43892300493633      0.19265841717028
  C   4.70196873578803      3.21059439201791      0.14142190304411
  C   5.78622780030159      2.34771503188951     -0.07456348012830
  C   5.30091718265065      1.02021446685596     -0.13782861220755
  S   6.26315127858385     -0.40972947981957     -0.36314897914851
  C   5.03644656192693     -1.62562462215827     -0.25289758132050
  C   3.69542989214943     -1.39307266313259     -0.10642393870511
  S   7.40618006798013      2.86031603595519     -0.05770926808750
  O   8.23874972755446      1.98236475286860     -0.83184144023531
  O   7.47436398922308      4.27857074594669     -0.26727531526220
  C   7.88539908511995      2.60236436650851      1.60117701704369
  C   8.16375333192211      2.39750276747266      2.74914434795563
  C   2.26593362473591      3.02222155764074      0.39411795381119
  N   1.26952875423820      3.57313746342676      0.56829831936485
  H   4.76375314726314      4.28188960322084      0.24326537349964
  H   5.41861298779932     -2.63229747656804     -0.34152439474229
  H   3.04062617511837     -2.25580727150338     -0.08165253109085
  H   8.40551215326654      2.21113967396831      3.76802205526514
