25
Coordinates from ORCA-job 4520optt
  Br  1.00654620805275     -0.21113298711977      0.07659702432455
  C   2.88668761807030     -0.03243741389354     -0.12636314043536
  C   3.65045160193729     -1.21541686307545      0.02179128645100
  C   3.25256112473776     -2.56280095024189      0.19447129430992
  C   4.40062844692736     -3.34921638742666      0.25723623730733
  C   5.54151479305152     -2.52068423941193      0.12789547232741
  C   5.08038947318552     -1.21880870330578     -0.01764172992383
  S   6.03517757361712      0.22903263008443     -0.12072680823767
  C   4.83282329666618      1.45242860402504     -0.46995546433776
  N   5.38757595706488      2.70131520451597     -0.84392957710649
  C   5.56088948827492      3.70510876099882      0.19818041351580
  C   6.53017956583941      3.31436869688253      1.28719803931900
  C   7.95672466748786      3.60641199533138      1.15206594273206
  O   7.13144353753704      4.38966301960040      2.00153352490845
  C   3.47288852780582      1.20770681005092     -0.40454837357348
  Br  2.35273062385904      2.71924215575365     -0.76340161372496
  H   2.22985331151392     -2.90298583327210      0.24476818430945
  H   4.42141833871001     -4.42351741569092      0.37733198135612
  H   6.57536926210558     -2.83290326691759      0.14732140500745
  H   6.24704919747299      2.56662506548242     -1.36408483984732
  H   4.58235252608620      3.91397253466486      0.63315383441954
  H   5.92105173371426      4.62958821361811     -0.26214543802212
  H   6.24827954123612      2.46556068878311      1.90264143390653
  H   8.30826582008586      4.11492170572065      0.25872220878116
  H   8.68414776496017      2.98295797484331      1.65988870223321
