23
Coordinates from ORCA-job 4524optt
  Br  0.82731007301687     -0.21494443643543      0.51072436683019
  C   2.64655494605178      0.00587431430933     -0.03911361763419
  C   3.48053776636022     -1.12675891474558      0.08403640185842
  C   3.24324965320133     -2.44322947977723      0.52462640525869
  C   4.44989820093841     -3.14105469572321      0.45076595548718
  C   5.46423494522350     -2.28200541181964     -0.03650934355030
  C   4.87408907756112     -1.04654977367320     -0.26396080721510
  S   5.57245450612412      0.41988507696373     -0.85002605657440
  N   4.34380189592504      1.50929036562475     -0.91127335223622
  C   3.09979232754094      1.22558908651511     -0.51372992051722
  C   2.21452210994766      2.44122143563707     -0.60384136880798
  O   2.62676305696423      3.43701680238909      0.35981022054064
  C   3.14227104817103      4.51317600193538     -0.26138815914607
  N   3.68193901109108      5.51679550796371      0.27574500925197
  N   2.94062129350963      4.36580347091262     -1.62148647770108
  C   2.37999542182151      3.15572635651035     -1.94089522275214
  O   2.06514343012778      2.77275812832246     -3.03325276443777
  H   2.29114937989063     -2.82662244829568      0.85800083683663
  H   4.59173557135746     -4.17838422484879      0.72089718265570
  H   6.50064277624431     -2.53602836177909     -0.20188695089807
  H   1.16803418432606      2.20966780049369     -0.42615829028150
  H   3.71885133141496      5.38436467887698      1.28215401785673
  H   3.27840799319028      5.03540872064355     -2.29123806482409
