23
Coordinates from ORCA-job 4527optt
  Br  1.27485933487388      0.14890902970444      1.03199696326071
  C   3.09404865672075      0.13859249118885      0.50938201740375
  C   3.79111234264005      1.31373846947920      0.16246725864926
  C   5.19656462591985      1.23440446406093     -0.03069327458767
  C   5.72255976716898      2.51391752700920     -0.27302318977735
  C   4.65631917678811      3.40775215153780     -0.24275958056453
  C   3.46858950863680      2.69658607435724      0.00644273746959
  S   1.95465723218252      3.46000157577286     -0.09934170052524
  O   2.15190207851101      4.87595342728108     -0.32036421900228
  O   1.01894604728530      2.76017349390647     -0.94640843090915
  C   1.15918850418184      3.38330466277863      1.56574273230454
  O   1.71610292129644      3.64485357802104      2.58027467489069
  N   5.86788943872165      0.00068068360591      0.03635041384120
  C   7.21212054519592     -0.10987308562659     -0.19599327015665
  O   7.82810124234162     -1.16375595214007     -0.15614400165600
  C   5.13318147942254     -1.13943018693400      0.34026131698114
  C   3.78992025583915     -1.06874475484993      0.58719695646573
  H   6.75120228411328      2.77894648266140     -0.45363930994383
  H   4.69556028688554      4.47212759510409     -0.41019250511503
  H   0.08723314979038      3.11883782850449      1.48302221032920
  H   7.68415924781033      0.85028211974603     -0.42447800168525
  H   5.71063549425119     -2.04813784052228      0.37053814202816
  H   3.26714637942279     -1.97711983464681      0.85136206029901
