26
Coordinates from ORCA-job 4532optt
  Br  13.22891170819768      1.91197163410811      1.44455589221902
  C   11.48995919480997      1.10642513277688      1.27222286235630
  C   10.46579233729156      1.41122840361831      2.14372076325270
  C   10.71545315739642      2.26394366539618      3.32199900308698
  C   9.88112436598543      3.22185625444218      3.74590304747505
  C   8.51139310546841      3.47552337728843      3.16108008923792
  C   7.63836009684246      2.28801068667350      3.49508481781641
  C   6.72791707613713      1.51458490363575      2.54993803759729
  C   6.44973450087503      1.75884342527002      1.11840370068148
  C   7.33893322094038      1.38271938237226      0.17160156079054
  C   8.68400734423865      0.95516781610694      0.45781395096401
  C   9.55243209393095      0.59512862480934     -0.63047834307921
  N   9.30382671407925      0.38895693658721     -1.87598128619758
  S   11.26233067664605      0.23184809842350     -0.20753658080765
  C   9.13152173003425      1.07577882648229      1.79807956671195
  C   8.10020181901141      0.99959346099137      2.88912278679003
  H   11.67979878048395      2.16736413091167      3.80875393822818
  H   10.18777872074228      3.82796979514378      4.59317317408957
  H   8.57683551327490      3.56713420519907      2.07257036041579
  H   8.09099412040422      4.40567502160428      3.54902094431474
  H   7.33554946183602      2.23241883481496      4.53591185812101
  H   5.90705044427732      1.04809965342162      3.08627071568398
  H   5.47309641535448      2.13213456701848      0.83378436905310
  H   7.05054508764277      1.48199601440438     -0.86982988599476
  H   8.30400510710706      0.47514280428561     -2.05025169045920
  H   8.18344720699123      0.13548434421373      3.54106634765220
