27
Coordinates from ORCA-job 4541optt
  Br  1.38560958472592      0.48410283722454     -1.12112709173829
  C   2.91028960738053      0.29406005227870      0.06583376409460
  C   3.53027069255878     -0.97902041687252      0.16700142958968
  C   2.68598248512787     -2.22589783243385     -0.02921531926654
  C   3.12073512344812     -3.17107721061871     -1.12006770565202
  C   4.23824433057317     -3.87778393948546     -1.01084695115122
  C   5.14199011716271     -3.66680558036631      0.17004416010421
  C   6.35322499445717     -4.55915936104850      0.25517776169655
  C   7.42420496127014     -3.89170067230746      0.66743603077556
  C   7.10121585989695     -2.44256437189340      0.92429477952942
  C   5.77481022849509     -2.24935068920552      0.16311440008976
  C   4.89985548590933     -1.07440695921459      0.58722497697283
  C   5.52180912406818     -0.04621545642706      1.22516550637843
  S   4.75210450940062      1.43647564199288      1.71168437445573
  C   3.30447237628599      1.53062929863782      0.59392599385944
  O   2.81179786729350      2.64730528169115      0.45928163048603
  H   1.65818427840863     -1.92429755028717     -0.20502737319762
  H   2.67549898532878     -2.78915400684653      0.91493313620794
  H   2.49753602723338     -3.25572010190320     -2.00428498366422
  H   4.56281724479138     -4.55248304154474     -1.79760991333686
  H   4.55761050281792     -3.78617522097043      1.09363121416270
  H   6.31599021303396     -5.62123765096041      0.04105714568096
  H   8.40058548676854     -4.32657026002344      0.84405021452206
  H   7.88287068688142     -1.76036418098216      0.58562382738920
  H   6.96111069121283     -2.26535636396237      1.99693208536469
  H   6.04708841952075     -2.07585696878439     -0.88553849817369
  H   6.58009011594824     -0.07337527568684      1.44630540482066
