29
Coordinates from ORCA-job 4544optt
  Br  0.61983606038318     -1.04426733720452      4.28822550691971
  C   0.49931273656906     -0.01625263616646      5.87288992632140
  C   -0.64539759003221      0.43311942327065      6.40964736750642
  C   -2.06119086973314      0.01011481607697      5.97596721543889
  C   -2.70571924333706     -0.18157099816848      7.31293938108615
  C   -2.93056958854497      0.92550694085910      8.02082070521084
  C   -2.20513670126263      1.07381480323979      9.32302217398755
  C   -2.42385560152477      2.38837290057961     10.10083965937992
  C   -1.15308486086022      3.21598345873509      9.86028269486646
  C   -0.06292228427011      2.14991475714614      9.75927672865922
  C   -0.68871936288576      1.09049668436794      8.86238864466613
  N   -0.53941982226612      1.42865300800230      7.40425718484769
  N   0.34347953198293      2.53653140530776      7.12756038175561
  N   1.50926549251396      2.24589050347487      6.54844084463488
  S   1.96899281285107      0.70464291168568      6.56472868803536
  O   2.09227255109017      0.15434410456712      7.90057319575611
  O   3.08443538124755      0.51397508507092      5.67850871480461
  H   -2.02452921819175     -0.87112774390004      5.33989517297876
  H   -2.51490580952225      0.83982098995024      5.42684171898356
  H   -2.39361877214095     -1.07456916589685      7.85302434251664
  H   -3.14666205612063      1.85000800841500      7.48993707960289
  H   -2.36398676969202      0.19914222532054      9.95778516857361
  H   -2.52705097622350      2.17777733244419     11.16827287398140
  H   -3.33407119598858      2.89956012392152      9.78172814765294
  H   -0.97165867819340      3.95072559630957     10.64643669838721
  H   -1.20616316836680      3.74053430002182      8.90368794176908
  H   0.09783789866677      1.69268674272555     10.74120154039447
  H   0.88853618179825      2.51024371715955      9.37841432956860
  H   -0.22730607794605      0.11292804268435      9.01440597171353
