25
Coordinates from ORCA-job 4552optt
  Br  0.89897074921885     -0.00664980233634     -0.39314639385786
  C   2.70655685461257     -0.06125111267741      0.25881302787853
  C   3.48998788117161     -1.21082788722967      0.06000492867692
  C   3.12275169309069     -2.55219772329560     -0.16496861831359
  C   4.28899975480198     -3.32600363609480     -0.19409256262832
  C   5.40678396873207     -2.49010824039055      0.00468656537675
  C   6.84007000642068     -2.88723931567344      0.03845191240191
  C   7.19709942325694     -4.00136929986437      1.04393030617100
  C   8.40105784716732     -4.70689560358222      0.42067388483664
  C   8.21489671249063     -4.48852386745205     -1.07816428170698
  O   8.78476080257910     -5.09054308515957     -1.97139882774704
  N   7.31637638688159     -3.49485733338481     -1.21461602096430
  C   4.92915486897663     -1.18098597579088      0.14868835637439
  N   5.70751087246020     -0.05244952786474      0.29149246225384
  C   5.17413233451210      1.09937829944012      0.36005412462405
  S   3.46243019138263      1.51415949539397      0.33934127262276
  H   2.11038024261483     -2.90579789227683     -0.29071046649282
  H   4.32804546740175     -4.39481708810210     -0.35826287980372
  H   7.43357498143432     -1.99177186056180      0.24946969253798
  H   6.34899944742894     -4.68461962712270      1.10625959527506
  H   7.37857428812530     -3.59387375412668      2.03702021859912
  H   8.47819424195276     -5.77091325165163      0.63726663784767
  H   9.34645733006848     -4.23642195671824      0.70465231698597
  H   7.03657219544547     -3.14663900894901     -2.11732324776087
  H   5.79866145777241      1.98521905547141      0.44287799681290
