21
Coordinates from ORCA-job 4557opt
  Br  1.17215003964907      0.12510338845854      0.60080176265081
  C   2.89057979189328     -0.10410268198779     -0.31802650151247
  C   3.60016558848324     -1.31341618880805     -0.18933793095800
  C   3.22390130820236     -2.68128443432496     -0.16348763912497
  C   4.38409600327623     -3.43631148896855     -0.12535272810282
  C   5.51341003987198     -2.56732707276332     -0.12445415413483
  C   6.88619844896995     -2.93435301952549     -0.08092799894049
  C   8.05583700549985     -2.20849106099023     -0.08877795580063
  C   9.04859291790452     -3.20325668021598     -0.02940049326268
  N   8.56184132720209     -4.42159518548117      0.01205911221713
  O   7.20423186337431     -4.24664760681526     -0.01946452275507
  C   10.47023482535287     -3.01726931244741     -0.01539756745234
  N   11.60210566230598     -2.83317308805243     -0.00644801457905
  C   5.01500890408630     -1.25343194766256     -0.15786503279918
  N   5.70896375027612     -0.05363931495604     -0.11040484875485
  C   4.99103713667048      0.99076076463441     -0.12915324974052
  O   3.63978697294770      1.05728834371401     -0.23298034022570
  H   2.21095962278340     -3.05313178905150     -0.16988962099265
  H   4.44222625260556     -4.51426823608026     -0.09928245290370
  H   8.15697964571605     -1.14043874152773     -0.13028109349686
  H   5.41569289292758      1.98498535285213     -0.06692872933111
