29
Coordinates from ORCA-job 4565optt
  Br  4.72067222417337      1.01403593423776     -3.32606396994587
  C   3.89886898254498      0.49893408064363     -1.69034480437685
  C   3.32969487955531      1.43651733239897     -0.81761737894196
  C   3.13962623446015      2.87776315353374     -1.26152354596154
  C   2.16875906003687      3.77946266123995     -0.48440830610257
  C   0.63945193707365      3.56598633923206     -0.67790929878635
  C   0.14987864843464      2.46287914706997      0.21234743411084
  C   0.08698692005503      2.55049598948694      1.58565230359275
  N   0.26438149160415      1.29275246822011      2.09290279477667
  C   0.44071170518091      0.39039882763802      1.07562048585584
  C   1.42443536575426     -0.72997661671659      1.24358758559816
  C   2.77236677641006     -0.23535038629023      0.66852054785948
  O   3.32479198044187     -1.21819695566880     -0.16857129213173
  C   3.98016873880339     -0.87990790566869     -1.33903488101313
  N   4.55563673137939     -1.80953774631806     -2.00679487590937
  N   2.87051419764072      1.06362634024945      0.36479975462778
  C   0.27204606617299      1.09042999929918     -0.09900601683640
  H   2.82938190811973      2.85088275321912     -2.31047624293951
  H   4.11990539218930      3.36891214243249     -1.27892703718810
  H   2.38424979561052      3.70848597342711      0.58365239075263
  H   2.39479156464992      4.80512261381796     -0.79444094666903
  H   0.42625849255955      3.34460546261881     -1.72765694779204
  H   0.13658638283129      4.50826787196747     -0.43948125027991
  H   0.00146215878590      3.41033313188274      2.23054050884674
  H   0.39722334653047      1.07447616667132      3.06369893128942
  H   1.49199793997335     -1.03324629781337      2.29308178913656
  H   1.14439913365765     -1.61535742672607      0.66953088897118
  H   4.42011764711114     -2.68782505168460     -1.51164593983830
  H   0.51163429825938      0.69302999759960     -1.07503268070539
