31
Coordinates from ORCA-job 4567optt
  Br  1.00555376425740     -0.22430238846973      0.22325562874204
  C   2.89891973806427     -0.05728303477585     -0.01084961854889
  C   3.66825635805044     -1.23292767857786      0.00703939607646
  C   3.15678448737331     -2.63280533933856      0.22232683222782
  C   4.33282687209216     -3.52347359130709     -0.22641587086642
  C   4.21087616248164     -3.84309050157980     -1.71786724072543
  C   5.25175467138369     -4.82508434452907     -2.22320384832745
  C   5.15265280642544     -6.24655804976680     -1.63084380435495
  N   5.47530246126487     -7.17619513583682     -2.72911033623468
  C   5.41905274718793     -6.47701593645363     -3.78892511463650
  N   5.09657687239989     -5.14459408180658     -3.65344754473280
  C   5.57203271568690     -2.65813048860362      0.07792339308070
  C   5.06352621118601     -1.24537975881315     -0.10054433959115
  C   5.84774046533984     -0.13887976761543     -0.28989746533879
  S   5.15537109435533      1.46268247646394     -0.44097962336485
  C   3.37263202654114      1.26108706694138     -0.17563464379911
  N   2.65605054042790      2.33871923325737     -0.17888476824992
  H   2.24509371060588     -2.84404152429112     -0.34169839025369
  H   2.91355136423183     -2.80875525829393      1.27955203750142
  H   4.35188123251337     -4.46239956742198      0.33633426861667
  H   4.27465464882738     -2.90436964710874     -2.27788123793907
  H   3.22554765298546     -4.27273853217814     -1.92279044885711
  H   6.25932580136110     -4.42887603171885     -2.05559563006437
  H   4.12985869658864     -6.44692280226078     -1.29160688231341
  H   5.81988174380829     -6.40216530895383     -0.78460564030432
  H   5.56906000880209     -6.89141682657428     -4.78107199548739
  H   5.43195965598835     -4.48647982691911     -4.33908129745608
  H   6.42831348230801     -2.88112552675001     -0.56473052071694
  H   5.89877771434815     -2.81872103651828      1.11213064709263
  H   6.92656637704850     -0.17651815379792     -0.35321944681277
  H   3.23961791606469      3.15976136359832     -0.31567649436163
