24
Coordinates from ORCA-job 4568opt
  Br  0.63438249660672     -0.60289220203498      0.27906413199302
  C   2.64336856779873     -0.22192595491648      0.82433639405852
  C   3.53453613307613     -1.13416417614411      0.20768207912504
  C   3.27146678287712     -2.14671837679916     -0.73796135001486
  C   4.47390573870532     -2.75067597251605     -1.07919124179696
  C   5.51765058228420     -2.14083565707872     -0.35089613214473
  C   6.97125303844966     -2.49839091857064     -0.35997503068422
  C   7.41439630260481     -3.30369369268028      0.89511738661509
  N   7.58461804918284     -4.70211155187940      0.46212659038164
  C   7.51426056574781     -4.70786554899535     -0.79746288749763
  N   7.27633563596418     -3.48192346878740     -1.41198463603892
  C   7.38507734144865     -3.23437892002008     -2.74070566366142
  O   7.28521947413499     -2.15156005147224     -3.26179859936539
  C   4.94755069361027     -1.14919724148973      0.44333464399560
  N   5.62483742086665     -0.30133554349957      1.34274101893034
  N   6.75836147172410     -0.34497539955166      1.65255927852975
  O   2.77082180784063      0.68666096049152      1.56180151448227
  H   2.29618962794353     -2.38533883143803     -1.12825242900166
  H   4.59748856060127     -3.54617029914673     -1.79985621048602
  H   7.58692655878043     -1.61091899774241     -0.50637493971884
  H   6.66539308797071     -3.23847006911333      1.68145135320431
  H   8.36178934643325     -2.94405293184190      1.30089215961251
  H   7.63274360112269     -5.59018190465639     -1.41758548578905
  H   7.59642711422488     -4.15288325011667     -3.31706194472835
