29
Coordinates from ORCA-job 4569optt
  Br  -3.64479744029724      4.01432755893391     -1.07450273055346
  C   -4.90789839249490      1.88210188286038     -1.73899214549171
  C   -5.73356465386293      1.83596000015569     -2.79988436145663
  C   -5.19431644761157      2.23387069468853     -4.14888433254866
  C   -3.72989526552140      1.76122005605842     -4.29210986944328
  C   -3.54706617895355      0.22215000722441     -4.29764832078919
  C   -2.78907025894113     -0.48045420003443     -3.15951417305702
  C   -1.46637759358122      0.15224767330994     -2.65811071824076
  N   -1.76633807536782      0.65838986665572     -1.31849844933191
  C   -2.94701091283817      0.28306904465231     -1.06258968103473
  N   -3.76529001266006      0.66179163624868      0.00718061899542
  C   -5.02312738342517      1.07610148643007     -0.58641492075920
  C   -6.18961644599967      0.42761862101098     -0.41577804242635
  N   -7.18238113570085      0.61516366664979     -1.34459344073108
  C   -7.01090483243836      1.18226542233796     -2.62013897926553
  O   -7.91546405154407      1.06034133902073     -3.44428933816268
  O   -3.57177170631752     -0.52808047354049     -1.95927374688091
  H   -5.21753880080871      3.32177836109450     -4.26258206215877
  H   -5.82674075287830      1.80496217036704     -4.93023398369957
  H   -3.15485538778151      2.22194218116789     -3.48510878563702
  H   -3.32970644499679      2.16388127505643     -5.22614027688448
  H   -3.02049016860955     -0.06847895986719     -5.21268457914693
  H   -4.52895198372288     -0.25923938373287     -4.35191807018030
  H   -2.63808713802407     -1.51814936264780     -3.46490798380770
  H   -1.14824248130662      0.98326755143174     -3.29206002020454
  H   -0.65227418188951     -0.57710742798980     -2.62654373663622
  H   -3.31112219728440      1.45895121273824      0.45077787294285
  H   -6.36738969703763     -0.30486186999058      0.36140954234893
  H   -8.06270997810428      0.13696996970975     -1.23696528575850
