28
Coordinates from ORCA-job 4570optt
  Br  1.05951392392304      0.00594810441441     -0.46564944975677
  C   2.75491235726292     -0.34635078989999      0.40067364549594
  C   3.65220914610758     -1.24144763144389     -0.19462276337611
  C   3.43125604764358     -2.38333559537048     -1.02055985209108
  C   4.66090189676282     -2.94864623122139     -1.30866243397321
  C   5.69436382196231     -2.18116524972947     -0.68361082125010
  C   7.16136260182543     -2.45431225197518     -0.70124765334046
  C   7.63859129308458     -3.47896976441524      0.34688937923419
  N   8.92532063394999     -3.90138605668949     -0.19505045907096
  C   8.97683921420933     -3.79174681801878     -1.56716188919301
  N   9.87366041361271     -4.21721866358525     -2.36705817320149
  C   7.72891064122696     -3.05522689152331     -1.99504979146433
  C   5.05992211371733     -1.14621684759297     -0.01192426623050
  N   5.67652199996881     -0.10311855887456      0.70143115888032
  C   5.07665141140943      0.94310418916456      1.32770257426632
  N   5.66083231234980      1.90964026835905      1.93633312226396
  S   3.30211279943872      0.97939754684020      1.40215175490760
  H   2.46361413205169     -2.72194350095252     -1.35716057004330
  H   4.81742083611157     -3.82802444729435     -1.91837116060372
  H   7.72074475587687     -1.53061808309445     -0.50694683790839
  H   6.92127805718926     -4.30423413177595      0.40463148748516
  H   7.74549241328022     -3.03812078506575      1.33848252078871
  H   9.48686837450737     -4.60019495969310      0.26416818873145
  H   10.61068832718348     -4.70728639997714     -1.85978798388358
  H   7.03036962204883     -3.78958056746215     -2.40380635019587
  H   7.93637193181722     -2.32509590209367     -2.77350275956901
  H   6.68470420112648     -0.07626695295203      0.69660885583547
  H   6.67356472035097      1.79841697192310      1.90210052726279
