25
Coordinates from ORCA-job 4575optt
  Br  1.17783098209565      0.52404153515276      0.70025183349147
  C   3.01408443415541      0.21066803950690      0.26342869151983
  C   3.51121807808399     -1.11720326628246      0.21450614516795
  C   2.99003084288301     -2.42063698719433      0.39717073000549
  C   4.02753269577635     -3.32662885975778      0.20563867956557
  C   5.22846264185173     -2.61169217307253     -0.09839569334949
  C   6.57701217010712     -3.13884826634724     -0.33179011228215
  C   6.91149046502304     -4.49130521694607      0.32717726006733
  N   7.56339405590142     -5.30265142451316     -0.70518446110083
  C   7.45121932849777     -4.63207826771382     -1.77959433153690
  O   6.87534350977228     -3.44053084873590     -1.77992567822743
  C   7.97510328279714     -5.20565087752887     -3.05530207839011
  O   7.94379900756072     -4.66052727878158     -4.12159166117981
  C   4.88314626446002     -1.26006404067192     -0.09752858963323
  N   5.66636691156665     -0.12057444813380     -0.31741721132690
  C   5.01731461067480      1.11303735199662     -0.31934704604552
  N   3.75860392969989      1.27238827669351     -0.01175307289398
  H   1.96530166773955     -2.65500538181562      0.64244258419812
  H   3.93291115304541     -4.40165542807794      0.26831036978983
  H   7.33260819964868     -2.38810956707527     -0.08253155862297
  H   6.01016594648199     -5.00414757034424      0.66568990169834
  H   7.56854069413742     -4.37662228911544      1.18895065142074
  H   8.41182280767224     -6.20918666348006     -2.91140305979242
  H   6.48221277707280     -0.21275688485579     -0.90277566961131
  H   5.62648354329477      1.97374053709411     -0.55902662293162
