22
Coordinates from ORCA-job 4578optt
  Br  1.07064725788598      0.05998280990696      0.11585246596741
  C   2.95447883534235      0.07857001322236     -0.06090373809897
  C   3.67250911963816     -1.13250063480331     -0.17223360782741
  C   3.13317565472190     -2.56425400127018     -0.14316979065438
  C   2.38381261661339     -2.94595512948927     -1.34626263054660
  C   1.78005120592257     -3.26766777894269     -2.33056915271593
  C   4.43729363012275     -3.29726306511473     -0.02587359582221
  C   5.49473026066592     -2.49227737785548     -0.04490868857933
  N   6.60974350835564     -3.32307367109033     -0.10261325456476
  C   6.19217955567646     -4.63399070236758     -0.11619976577592
  O   6.85861598210492     -5.63689596006560     -0.12684633660095
  O   4.82187042283280     -4.61808876828103     -0.09472547121917
  C   5.08897994914208     -1.09954599302678     -0.12705413336677
  C   5.77217977918426      0.08166798984507     -0.08634709302069
  N   5.01962079917497      1.25778020234490     -0.18240109453449
  C   3.60856690659479      1.33326653000431     -0.04005800826912
  O   3.10926993056869      2.45735204974447      0.06966840646704
  H   2.48314402959893     -2.71677269658362      0.72787221210115
  H   1.24206806776450     -3.52475989404953     -3.20983209918434
  H   7.58212110783126     -3.07816675763356     -0.07881696660991
  H   6.84555527967349      0.17891214549256     -0.03559694097133
  H   5.46238610058410      2.14768069001308     -0.02698071617332
