27
Coordinates from ORCA-job 4582optt
  Br  1.21295649936981      0.15442671428394     -0.37835601203894
  C   3.09455227592260     -0.09375522663755     -0.40168472175267
  C   3.65396240443695     -1.31933739560349     -0.00192165365073
  C   3.01664397496964     -2.60607008752381      0.44298440276924
  C   4.12486950249954     -3.62524500980498      0.09374292244240
  C   3.98489159232156     -3.95827120676554     -1.41509052111632
  C   5.24534378173778     -4.25362026540462     -2.14995109078558
  C   5.84102434793437     -5.39901572221626     -2.61732938567717
  N   7.00617376165179     -5.07200470236563     -3.23437599541750
  N   7.16469627697697     -3.79109606640322     -3.17392646303863
  N   6.11082980563989     -3.29106650127040     -2.53300053422005
  C   5.40954717632143     -2.84353582136017      0.42432780110919
  C   5.04313353579190     -1.46112327931121     -0.05121283795519
  C   5.83205941012933     -0.44584182613133     -0.50959979043740
  O   5.27751652470713      0.76776937399498     -0.86717764276174
  C   3.88591527576620      0.98864908538097     -0.85438868199862
  O   3.52755909486826      2.08678132388727     -1.23417347077958
  H   2.07451871830486     -2.82037362047154     -0.06938240022816
  H   2.80400872929066     -2.61624913013196      1.52134439112977
  H   4.05777003210253     -4.54643219910450      0.67765704599647
  H   3.51260916739507     -3.10059126038882     -1.90134703390925
  H   3.30670736755335     -4.80501492523867     -1.53319804118346
  H   5.49876278116326     -6.41759958551041     -2.55206602040205
  H   6.05612842207240     -2.29846957270084     -2.30834584799103
  H   6.31138251657935     -3.26223559050864     -0.02383989298255
  H   5.55828309455435     -2.84689554848721      1.51040504449817
  H   6.91215392993890     -0.43278195420632     -0.53309356961859
