28
Coordinates from ORCA-job 4587opt
  Br  1.95089084778942      0.88651778645103     -3.54066924482017
  C   2.84357842902548      0.70600827144288     -1.87210242381460
  C   3.31146230129747      1.72674340453456     -1.14247250874142
  C   3.09034955533810      3.17933036205611     -1.44647257623045
  C   2.30748350515900      3.92763028842884     -0.35377664380425
  C   0.92523498582828      3.35558598787212     -0.00042639058317
  C   1.03196403380616      2.09268919776252      0.80516205867561
  C   0.38674413551648      0.90444279187556      0.63322799384385
  O   0.93749451316893     -0.01636347204156      1.50292184272658
  C   1.95296853065761      0.69112687355978      2.18737009820230
  C   3.30357642467977     -0.04311447687726      2.11363997920620
  C   3.65102655202311      0.04774400828427      0.64856286240650
  C   3.20119118791300     -0.86600879109666     -0.22306528205229
  O   2.94225756704708     -0.59269982700723     -1.54540697973332
  C   4.05404188723833      1.35884372300120      0.07816925512945
  N   4.94612326595315      2.14968806867507      0.54079632400292
  N   1.97228655654088      1.98249965998096      1.77378291436696
  H   2.57311782970928      3.27658958427022     -2.40180501058470
  H   4.06797012864165      3.65919349452905     -1.54529862994135
  H   2.19036778145220      4.96162035472045     -0.69340055730813
  H   2.90722472361406      3.94161923660499      0.55706587442259
  H   0.34150041091993      3.16124699195662     -0.90639496088329
  H   0.38430835146492      4.11552179519513      0.57301551419990
  H   -0.39990452851868      0.57465688499315     -0.02325859489835
  H   3.20409462378507     -1.07899821702313      2.43772954164982
  H   4.02163857646296      0.47137814920944      2.75045279602687
  H   2.90044572648766     -1.87308963385867      0.02654225738167
  H   5.31756209699866      1.77359750250053      1.41211049115428
