22
Coordinates from ORCA-job 4590optt
  Br  0.86334689935160      0.05936035361511      0.02393855754188
  C   2.75428867814592     -0.03726395665808     -0.02947037875587
  C   3.49713274705874      0.89617046101059     -0.75447631304922
  C   2.91996063319787      1.94011827741200     -1.51237217732465
  C   3.69467095169019      2.86190420835118     -2.18559748047190
  C   5.08697972944980      2.79694465784765     -2.13214394694737
  C   5.71316091915997      1.79005225865785     -1.41249382996433
  C   7.17507421701648      1.72746155822314     -1.35204819417453
  O   7.92023912574091      2.55524345058216     -1.88603407881928
  C   7.68842791705657      0.59381588165757     -0.59759561990264
  N   6.95272020646154     -0.28940541558136      0.00796671964200
  C   5.59993397030047     -0.20158158532869     -0.02720025257131
  C   4.84916781536392     -1.23672075292391      0.69657318438865
  N   5.37892861026784     -2.23210239716355      1.28945377865775
  C   3.32982500659615     -1.11429401709439      0.74707199732640
  O   2.66165923686455     -1.88661775111232      1.41171721852026
  C   4.94660785664351      0.81067260527251     -0.72079573801922
  H   1.84238282155215      2.00836280834687     -1.55742929528027
  H   3.21095569201683      3.64579434877758     -2.75500514874482
  H   5.70998458249214      3.51900527356018     -2.64468717998171
  H   8.76913655903529      0.49376306230447     -0.53924778961765
  H   6.39241582453750     -2.15968332975656      1.16287596754783
