25
Coordinates from ORCA-job 4591optt
  Br  2.01213727755898     -0.10206520692619     -2.78364115970004
  C   3.14743109169194     -0.09152520042301     -1.25425791474840
  C   3.64590104571159     -1.31774590240926     -0.76106650989125
  C   3.53227203811763     -2.67339519823226     -1.13686876651670
  C   4.28726430866844     -3.38120016800437     -0.21025455456981
  C   4.48321282942990     -4.86388475555624     -0.13550712255321
  C   5.93845169795041     -5.22277140353862      0.07531842159044
  C   6.51126105891198     -4.86324264599974      1.44266886571533
  O   7.37078218376541     -5.97924627624847      1.73320033161370
  C   7.02098236428674     -7.02282329781915      0.95271635170701
  N   7.47516925518814     -8.19507833396895      1.02661161978118
  O   6.10079336337353     -6.65639414143618      0.05219776360532
  N   4.87424034654600     -2.56926495029089      0.72116342845684
  C   4.48490580799507     -1.33918734184790      0.38493380973968
  S   4.93309743018037      0.11001096461312      1.22697932854200
  N   4.19315869845041      1.34490285044418      0.40412686889998
  C   3.44156912375393      1.12628187743338     -0.66486963872339
  H   2.97462500662688     -3.07138575603088     -1.97060902116659
  H   4.13540926604632     -5.33016556161449     -1.05871056499551
  H   3.90890986208888     -5.30218261088660      0.68938943811235
  H   6.55197219097152     -4.80421871198699     -0.72664954408720
  H   5.73343158241963     -4.79466626134116      2.20322842214914
  H   7.09274032373957     -3.94883589406713      1.44161405664269
  H   8.12809220970548     -8.24784598904543      1.80200580892668
  H   3.01918963682120      2.02492991518327     -1.10671971853022
