27
Coordinates from ORCA-job 4593optt
  Br  1.12559707243896     -0.09808574705428     -0.94452364762812
  C   3.00290600340527     -0.22391644913151     -0.60499149648053
  C   3.61035838871955     -1.51103635196026     -0.57520289484461
  C   2.99106682416741     -2.80078764881387     -0.10023837828935
  C   3.81961259981981     -3.35678044036729      1.07423635266559
  C   5.26081171726186     -3.70111167449368      0.67055452895934
  C   5.95720359644935     -2.54368221930077     -0.08441047821410
  C   7.03384015164899     -1.75767483336800      0.69847131376313
  O   6.93287700471590     -0.38346100568131      0.27788283330510
  C   5.63694784295411     -0.26449734706269     -0.14144610881655
  O   5.11461177404921      0.94773311771914     -0.23825662164001
  C   3.66499492831395      1.01234566603757     -0.53701798742619
  O   3.26259420553129      2.15094402486243     -0.66132166208653
  C   5.00803531552590     -1.42612392271895     -0.36606292811911
  N   6.51586751847069     -3.02315349858486     -1.36550166988590
  C   7.49367301688565     -3.93346646004760     -1.46107646266765
  O   8.01820676195304     -4.50570199454143     -0.52277746697592
  H   2.95132427631325     -3.56204552923186     -0.89196059645055
  H   1.96062318871087     -2.62461485424507      0.21285250247826
  H   3.35099517946921     -4.25598890992345      1.48541434514219
  H   3.82990940916412     -2.60333367810903      1.86753400413144
  H   5.24463479844889     -4.57327664371137      0.01446597030401
  H   5.84993413454740     -3.98736229617643      1.54474476818186
  H   8.04608257244634     -2.10862723220994      0.51461026528451
  H   6.80189110560766     -1.80038833633487      1.76691051920038
  H   6.17562139332026     -2.57110784743989     -2.20028280070186
  H   7.79577921966087     -4.12979788811067     -2.50460620318883
