28
Coordinates from ORCA-job 4594optt
  Br  0.87216170769540      0.06708566542742      0.21856030985288
  C   2.75662385095701     -0.03198159171532      0.12551321073598
  C   3.41612772539899     -1.24827302669479      0.00574226348761
  C   2.89935635762123     -2.65504580256303     -0.00338524810530
  C   4.13689175294877     -3.48451041927082     -0.41225179621507
  C   5.36447417527642     -2.63642114159369     -0.01684082257279
  C   6.60326537959363     -2.76536741072208     -0.89963772590514
  C   7.12568793169586     -4.19250870987423     -1.05372461681940
  O   7.84605811258638     -4.21721419092392     -2.29365032100522
  C   7.46016633574823     -3.19005635560945     -3.08943378607920
  O   7.89729592443178     -3.05911855393558     -4.19424334394956
  C   6.45077663970146     -2.33575240457067     -2.35520699991541
  C   4.80635712788000     -1.23460992913875     -0.00800049917597
  N   5.59821326416633     -0.18771126030371      0.04038356630482
  O   4.89467038452055      1.05162961653000      0.06234577126714
  C   3.51520549828932      1.17545182809309      0.15272353078779
  N   3.03227325823950      2.36000217378179      0.23755201227402
  H   2.06049201943373     -2.79563330975251     -0.68925556769914
  H   2.53774028975219     -2.94957376205053      0.99038125001378
  H   4.12260900274306     -3.63878720674057     -1.49409117148713
  H   4.14758729513981     -4.47238018580478      0.05345686606173
  H   5.66848433836466     -2.90455830223051      1.00517073909459
  H   7.38520484803870     -2.14650727697741     -0.45358677308765
  H   6.30847576866731     -4.91590373532975     -1.11952975454277
  H   7.80949024031007     -4.49815946150311     -0.26353259711672
  H   5.45947151428570     -2.56684444171308     -2.75481684306419
  H   6.63373749984169     -1.27772057918344     -2.52206314244194
  H   3.80310175667211      3.02446977436945      0.23442148930226
