30
Coordinates from ORCA-job 4604optt
  Br  5.29788631421055     -2.80146968775172     -0.23540973836289
  C   3.57358718423903     -3.27493384336177      0.35944970330066
  C   3.09838165264881     -2.81245646685537      1.59634915601882
  C   3.74185095261965     -1.93938067573599      2.46143119382695
  C   3.30368618062950     -1.87337903519989      3.82381016805160
  C   2.30629293915328     -0.80930387490132      4.15219948831046
  C   1.09967307491056     -1.04812025815781      3.21492226914858
  N   1.15240317971623     -0.21943271451419      2.00527202904063
  C   0.31317312813437     -0.88126774684143      0.98311956420980
  C   -0.28291238776524     -2.12172399912232      1.66779793808514
  C   0.78974603513808     -2.48808983936039      2.70811678377672
  N   1.83888988502501     -3.31315126931307      2.04611361770893
  C   1.35959131442122     -4.52404461813633      1.60077323408511
  C   1.69704895241956     -5.09836110943531      0.44214456579896
  S   2.59364759988332     -4.15183152203540     -0.72181771373771
  O   1.62221487820040     -3.32510140033570     -1.41745072580495
  O   3.38630832967248     -5.02607780766080     -1.56045246338348
  H   4.44317117430130     -1.22393868012024      2.04663203784252
  H   3.01535765099039     -2.83679779898577      4.24648468087086
  H   2.67618578234794      0.20173003545680      3.95440038193109
  H   1.97967497685470     -0.84701652581854      5.19471681750763
  H   0.18397968186772     -0.77767483453816      3.75675470333701
  H   2.11689746623772     -0.22688004419748      1.68846357386704
  H   0.91252102239871     -1.18755054619163      0.12314752675469
  H   -0.47203191051184     -0.20932719288531      0.63046347334198
  H   -0.48283823819122     -2.92486677226426      0.95929339586920
  H   -1.21363306223113     -1.86968199014356      2.18236791694908
  H   0.38125065371242     -3.09690733881276      3.52118120395415
  H   0.64874742985233     -5.00349036574441      2.27079126026475
  H   1.39024815911409     -6.09047207703577      0.14693395743658
