27
Coordinates from ORCA-job 4605optt
  Br  7.04732797938239      1.00157142775714      0.99227922801458
  C   6.56868340023012      0.81398976580333     -0.82145151793052
  C   6.48825952281933      1.91697768169264     -1.71282140698318
  C   5.43645751787468      1.77702991751501     -2.80910868077657
  C   5.27727141491837      0.29166905316420     -3.30456457357607
  C   6.55276119370435     -0.40103578030703     -2.90080418351968
  C   7.68946741238316     -0.08041071693907     -3.54494888160282
  N   7.83318593465904      0.29029007121825     -4.89698187338182
  C   8.82542413788785      1.35821578793766     -4.92326561503630
  C   9.38279004684663      1.26588419399788     -3.50806276871490
  C   10.22669904570336      2.28900101313804     -2.90763429248323
  C   9.84002206686278      2.96547167614107     -1.76843669320124
  N   8.64528691953365      2.94681629046538     -1.16881206214146
  C   7.55194666849442      2.78576898010884     -1.90667384464467
  N   8.83978015403946      0.30830566851105     -2.83911248238638
  C   6.61568208782104     -0.51213757110881     -1.39268402433273
  O   6.72934858515661     -1.56318963010865     -0.77967547560050
  H   4.46591532323912      2.14251015428646     -2.45909158944453
  H   5.72909407612959      2.40643679179041     -3.65583009301317
  H   5.08914175982212      0.27883159547135     -4.37990882489085
  H   4.41462944771334     -0.17697156006020     -2.82942505468579
  H   6.97333882605905      0.46248930589752     -5.39417640101487
  H   8.38380668223668      2.34975163506526     -5.07316949639497
  H   9.59274619452628      1.20554825057531     -5.68853300015519
  H   11.18465036104283      2.52472852186539     -3.35688836702884
  H   10.60250330274074      3.57303610405310     -1.27748119105177
  H   7.52877993817273      3.33442137206844     -2.86273683402244
