22
Coordinates from ORCA-job 4606optt
  Br  0.93140796269422      0.33499200177944      0.94100440747346
  C   2.96695904450335     -0.16909324919031     -0.24582363804592
  C   3.64523401394400     -1.37571846017231     -0.19624628482454
  C   3.30574700141494     -2.74055438785712     -0.19447819632783
  C   4.49316074657492     -3.46500818061699     -0.15498687219998
  C   5.60296129582573     -2.58965018272445     -0.13067565718187
  C   7.00256693335935     -2.93089234250637     -0.08607801171063
  N   7.55517806308704     -4.12716190702190     -0.08428539598746
  C   8.90750165258307     -3.89502251211522     -0.03557540919239
  C   9.17817169017687     -2.55138584495008     -0.00711662005294
  N   7.95961233965120     -1.95261938572402     -0.03903802969277
  C   9.87720724185771     -4.93887075273957     -0.01698165748588
  N   10.68330201548513     -5.75763427049070      0.00048110208911
  C   5.08446888260472     -1.28893540041880     -0.15152777390336
  N   5.75460930761676     -0.10825148930778     -0.12244959342994
  N   5.11266306075204      0.98505105362008     -0.14235258961654
  N   3.75744525837646      0.91125607729646     -0.21382340864288
  H   2.30281871770337     -3.13627391854967     -0.20550705802924
  H   4.58064950117220     -4.54159374988846     -0.13928786620844
  H   10.10645125208979     -2.01005612131054      0.03057644615575
  H   7.72612087517326     -0.96545724728173     -0.03501438123909
  H   3.32776314335365      1.82488027017013     -0.18981351194661
