25
Coordinates from ORCA-job 4607optt
  Br  1.07421661796183     -0.16376509336147     -0.21614573885497
  C   2.95213001101648     -0.15418093352466      0.04350312924356
  C   3.69895077354180     -1.33215699413174     -0.01731508156513
  C   3.32135390185119     -2.72056100469994     -0.01560604685580
  C   4.46673919256117     -3.48195544845696     -0.00755694185030
  C   5.60696481014465     -2.60938294084459     -0.00425246558922
  C   6.98382231022137     -2.94104545401072      0.02406092915617
  N   7.98870692862529     -2.11437904166961      0.03872930738647
  C   9.19987542784104     -2.91269392682261      0.07639971789126
  C   8.75391331114784     -4.36961093300169      0.08429901920038
  N   9.40889861668159     -5.46226524215645      0.11756816755880
  N   7.39254234582538     -4.28258355483354      0.04588804906396
  C   5.10547668011210     -1.29718384585408     -0.01786122634972
  N   5.87372082157637     -0.13876442109852     -0.00814027938677
  C   5.42054443764011      1.13894083166536     -0.09143195756062
  N   6.12729888425723      2.20510574411611     -0.12633534814024
  S   3.66586040488018      1.43186808791967     -0.17969849119337
  H   2.30397064890214     -3.07950684942304     -0.02521109746569
  H   4.49953102180818     -4.56299103671163     -0.01046848892727
  H   9.79795560447986     -2.70032274662154      0.96904555957741
  H   9.83924470486658     -2.72278444225915     -0.79241256327716
  H   10.40536515632710     -5.26356220010847      0.14393406947961
  H   6.77332382441392     -5.07399532886215      0.04987843937432
  H   6.87853977528858     -0.29757902303530      0.01291426617424
  H   7.11905378802788      1.97335579778675     -0.10478492708991
