25
Coordinates from ORCA-job 4612optt
  Br  1.07563922678972      0.08890881749551      0.19463555396439
  C   2.97420182506117     -0.02363596668727      0.08062578148149
  C   3.57374168379687     -1.23500369420911     -0.00319549078277
  C   3.00706273438036     -2.62837444984506     -0.02360687250265
  C   4.18462008424464     -3.46964638313873     -0.54666916989191
  C   5.44853590587452     -2.73190282173638     -0.06071704100560
  C   6.65563835628941     -3.00360989873152     -0.90830310398669
  N   6.66294336967391     -3.49298558580865     -2.10978637736171
  C   7.93501036279993     -3.58509533225325     -2.60638270706627
  C   8.92680570746694     -3.17326920411541     -1.77695763620638
  S   8.24217220897495     -2.64361117536411     -0.30071351656583
  C   4.99771757981902     -1.28899184010570     -0.06127960059089
  C   5.70252473534642     -0.08654782629758     -0.01273483547483
  N   5.14464825804147      1.10155252595169      0.05681122032756
  C   3.75720733372936      1.17760120586293      0.09998699942865
  C   3.17367884666698      2.45245381296849      0.17226850987870
  N   2.69811930060874      3.51133897910352      0.23433705113791
  H   2.11512619122365     -2.71491866656729     -0.64470496763693
  H   2.72541722115723     -2.93425912407060      0.98981638234329
  H   4.18958580912282     -3.46004344787994     -1.63662122576219
  H   4.15809764179336     -4.50920153094809     -0.21712643946492
  H   5.68780054484004     -3.06799952541408      0.96196618880361
  H   8.08515657138235     -3.97262206621880     -3.60406109481907
  H   9.98815955087377     -3.15363843370334     -1.95849237447707
  H   6.79138895004228     -0.08949836828719     -0.04209523376989
