24
Coordinates from ORCA-job 4620opt
  Br  1.20594241574120      0.08858314206708      0.06141421867328
  C   3.08781963453380     -0.05834710937913     -0.09232303645485
  C   3.71330336548901     -1.27006044141494      0.07499772746138
  C   3.24701094383384     -2.65533341026999      0.39829508088495
  C   4.54567043222316     -3.47800433709570      0.26396129708277
  C   4.82160600226983     -4.41216582889723      1.42190429159766
  C   3.73164781822676     -5.44327798731698      1.49921588290479
  N   3.44545186300866     -6.04267818713481      0.32388039814082
  O   2.62733338876806     -7.18173328078751      0.60994427748218
  C   2.79217223677557     -7.71086170735181      1.82511335902448
  O   2.27772139019126     -8.74568312626304      2.16096529392043
  S   3.84340245803128     -6.68768515130650      2.82167829481768
  O   5.63549586659592     -2.50150662541278      0.16117882182597
  C   5.10162242588448     -1.28898997823806     -0.03502444205557
  C   5.80471646999291     -0.12842792803912     -0.31354169969125
  N   5.17049818099006      1.03281813901307     -0.48258296562140
  C   3.85089002396751      1.07526247045540     -0.37640033672141
  H   2.47084720685199     -3.01645816061677     -0.27483870581057
  H   2.84608569955503     -2.72056625339271      1.41400335571458
  H   4.54581406214508     -4.04263884634076     -0.66731617522249
  H   4.87078445274657     -3.83030679192201      2.34784094364796
  H   5.81095223149937     -4.86702633625984      1.26102821825544
  H   6.88423000103163     -0.13413415088344     -0.40207432837759
  H   3.36798142964671      2.03422188678777     -0.52131977147927
