25
Coordinates from ORCA-job 4621optt
  Br  0.73739629459055     -0.27987068350123     -0.17284294411859
  C   2.64095884596469     -0.16467634180987      0.06642877433990
  C   3.39394821032788     -1.33080004912820      0.00695074053272
  C   3.21058608704067     -2.68657806239520      0.24625843474506
  C   4.45485159040035     -3.33631986384728      0.15568849471337
  C   4.74134130437196     -4.78795857270222      0.33949869056219
  C   4.96312584180775     -5.55239227119816     -0.94548991166290
  N   4.69413042814884     -6.83615521703322     -1.00661356239951
  S   5.04301435487328     -7.41350438598955     -2.50733106690700
  C   5.57818358557594     -5.91885386496917     -3.12066250074901
  C   5.47758670698275     -4.97511400191775     -2.14731349497820
  C   5.46425081709033     -2.36966411934771     -0.14124109042778
  N   6.75880908573535     -2.42018582270207     -0.31956805991040
  N   4.76884769874448     -1.16079946268898     -0.26612446925948
  C   5.29618237017137      0.10106935857337     -0.37606384833089
  N   4.59464780273348      1.16115710273388     -0.47967334581446
  N   3.20696711754768      0.99739734588445     -0.55061930487577
  H   2.25729088176131     -3.14424980658396      0.46315521349926
  H   3.93110954811889     -5.28015391187961      0.87930559746704
  H   5.64407542497025     -4.91753607571588      0.95168427034657
  H   5.92606299270457     -5.80134337583065     -4.13493729547077
  H   5.74873226050891     -3.93335568112949     -2.24184454303094
  H   7.07655400327195     -3.37597135739722     -0.18378752810431
  H   6.37585869108091      0.16618238700933     -0.37678688531435
  H   2.78148805547566      1.84767673356651     -0.20807036485173
