24
Coordinates from ORCA-job 4624optt
  Br  1.20197527063195     -0.31947405057246      1.41081005672230
  C   3.00078150431822     -0.30459611922295      0.79445614389470
  C   3.68417706957520     -1.46315999678399      0.49650297844598
  C   3.00646456695854     -2.82276826920765      0.62694129771086
  C   2.80625112254787     -3.22304130626952      2.02352170724438
  C   2.66603632494694     -3.59537874116636      3.15457967637544
  C   3.83287777598064     -3.90900512117510     -0.08385886402810
  O   3.81364537414362     -3.70441242442942     -1.48789401894959
  C   5.04589206121562     -3.07186707525686     -1.83257623179556
  C   5.61553470449300     -2.69524646091827     -0.45844161702089
  O   5.17199136540362     -3.82614444204026      0.29904256048757
  C   5.01169030250351     -1.41615574975105      0.04377975446360
  C   5.74744621854111     -0.23769292464359     -0.15926274000037
  C   5.30811598791921      1.07954917517306      0.08573772356008
  N   5.92178346267360      2.20955032459714     -0.07040521279135
  S   3.64986410820586      1.32035048871277      0.74113302833113
  H   2.02824814402827     -2.79050127296402      0.13766333226500
  H   2.54754725834260     -3.89155391692785      4.16797770151832
  H   3.45442762248618     -4.90561758129668      0.14478309095188
  H   4.85027120254167     -2.19865317989467     -2.45274363765812
  H   5.68452016123352     -3.78642518866780     -2.36213945730730
  H   6.70428648249486     -2.67089081599558     -0.43285632410813
  H   6.76557363613616     -0.32475120492696     -0.53075830389148
  H   6.85959827267812      2.02488585362810     -0.42599264442039
