21
Coordinates from ORCA-job 4626optt
  Br  1.05079626023769      0.17880289188273      0.05213809698973
  C   2.96811079120822      0.11912832279613      0.05491463476652
  C   3.60045114771159     -1.16099838070390      0.05648160092370
  C   2.96525280848518     -2.38224598040936      0.05732260376362
  C   3.68453928701521     -3.58120449722174      0.05872057302690
  C   5.11687657659588     -3.50637040171266      0.05901437457472
  C   5.73870535942918     -2.30788452793683      0.05823563466908
  O   7.07810892451302     -2.27146656760223      0.05823036655671
  C   7.84783649956393     -1.07879603621288      0.05842848421492
  O   9.04402607323781     -1.25056909118481      0.05861748038117
  C   7.09980824485940      0.10521685172998      0.05825034540251
  C   5.70761794733867      0.11334957777243      0.05742778803081
  C   4.93001975968317      1.26743602760030      0.05654863108500
  N   3.57949879622177      1.24648136458913      0.05506058601734
  N   5.02564524933340     -1.10513877281949      0.05729849787241
  C   3.03312184200859     -4.83174152433733      0.05975990070639
  N   2.51526543849882     -5.86609149092010      0.06007398636258
  H   1.88650572848801     -2.39228987556543      0.05685682312012
  H   5.73224380789189     -4.39263571864170      0.05966593193227
  H   7.63397929718001      1.04122663312031      0.05825342121079
  H   5.41759016049853      2.23079119577746      0.05670023839273
