26
Coordinates from ORCA-job 4627optt
  Br  1.12168455561556      0.23667427687697     -0.19592693667838
  C   2.99874736435582      0.01920008219592     -0.06032343238125
  C   3.62168141442867     -1.16038572641456      0.20588418739491
  C   2.93831740421163     -2.46423219916025      0.49454921156763
  C   3.59589532999990     -3.60905052482091     -0.28423168172285
  C   5.13503917544583     -3.59998216098272     -0.18541303820873
  C   5.69324669818990     -2.43289775842108      0.63468908018120
  O   7.10047678134498     -2.45479375127092      0.42406480413876
  C   7.87636777018885     -1.33163879973326      0.45268603809035
  O   9.06521009020554     -1.48660754482986      0.48294401968170
  C   7.21018260226118      0.02455050527064      0.35696921112212
  O   7.95970308431320      1.02460772277262      0.37584213720137
  C   5.79947364593869      0.03426980411145      0.18898415389992
  C   5.09912629399589      1.30462125845107     -0.05891325300584
  N   5.57916448942135      2.48432716898586     -0.13353438421360
  N   3.71618659097253      1.17575168276096     -0.24900298344003
  C   5.03607374808028     -1.13949975918722      0.27926713649398
  H   1.87682971725941     -2.41010516226487      0.25658650946110
  H   3.01062648619315     -2.67423140852699      1.56866779993051
  H   3.30180345640420     -3.51593804429026     -1.33103438567839
  H   3.19618142095338     -4.56110913892876      0.07055909712320
  H   5.57619706344849     -3.50301343000866     -1.17801286758003
  H   5.51416851570522     -4.53105787600224      0.23968167028712
  H   5.53096405536240     -2.63960184285182      1.70650939767590
  H   6.58603461544601      2.42276694893342      0.00941411545445
  H   3.23761763025781      2.04937567733546     -0.39990560679513
