28
Coordinates from ORCA-job 4631optt
  Br  1.27500475379022      0.46334319303596     -0.03415249732630
  C   3.15414628133711      0.14764900851514     -0.01164046141343
  C   3.69543940691792     -1.16630124320695     -0.14241085473482
  C   5.10757145164086     -1.23521623683652     -0.17013191963826
  C   5.83569358212315     -2.54505725680211     -0.33611197133107
  C   5.01400056650931     -3.69678975929138      0.22147374477996
  C   3.64820518976053     -3.68551186060848     -0.44939894962082
  C   2.84720645445034     -2.40767944564433     -0.10683510072203
  C   2.11484884350656     -2.62894965239078      1.23021529916811
  O   0.95513526343934     -3.41097373723179      0.92587665493917
  C   0.46035215185763     -2.97730793453584     -0.32284858621349
  C   1.66876827941994     -2.45699635099503     -1.09162919549753
  O   1.69907248833607     -2.24506593359326     -2.27148019863878
  C   5.84440365492177     -0.09900749851768     -0.04916176598314
  O   5.30672415322192      1.15323887570563      0.07427262244872
  C   3.91832350872383      1.33075065687484      0.08272656516612
  O   3.53748595902625      2.48468482665897      0.17678170263799
  H   6.81262589148382     -2.48463094644758      0.14964828765560
  H   6.01710717472472     -2.73763264506756     -1.39980105326036
  H   4.90568108010188     -3.58688498770511      1.30493312505026
  H   5.51092180959131     -4.65307417089227      0.03810410100337
  H   3.05123046622102     -4.55468015320597     -0.15853687316380
  H   3.78971881210524     -3.72583782727875     -1.53334624126089
  H   1.82734742115179     -1.67767001799315      1.68099246655995
  H   2.71576296496146     -3.20066244379231      1.93772523197924
  H   -0.26900683827034     -2.16764946087766     -0.21466025319914
  H   -0.00206684135010     -3.81595559595706     -0.84451639463506
  H   6.92529607029637     -0.08113140191897     -0.05308748474958
