20
Coordinates from ORCA-job 4632optt
  Br  1.43208196872366     -0.56144509168090     -0.04263112768749
  C   3.25847905982734     -0.13972272258573     -0.04439469311492
  C   3.80970280004008      1.12283421393037     -0.05553678929133
  C   3.10054901096018      2.37918759188826     -0.06534618411542
  C   3.79654267712830      3.58876020910907     -0.07978372652197
  C   5.18153058680598      3.63023842426130     -0.08419214344838
  C   5.90368311258059      2.44253994483069     -0.07245671961929
  C   5.26720254913892      1.20256233261868     -0.05769091457026
  C   5.97064709755792     -0.01767320165719     -0.04460814793374
  S   7.67684657457074     -0.33365071220814     -0.03849979699742
  C   7.31318825517324     -2.16466850501142     -0.01569412716568
  O   8.22036967801241     -2.95880440574077     -0.00256023223660
  N   5.97845606013092     -2.38112594512775     -0.01692647172772
  C   5.32047412206083     -1.23821834683094     -0.03151391522159
  O   3.96888634619888     -1.29301347619354     -0.03347608756696
  C   1.68075385677125      2.52275887090512     -0.05879858761401
  N   0.55702651248319      2.77681616884073     -0.05489267044354
  H   3.21990263607301      4.50435464946256     -0.08684465280113
  H   5.69389622704647      4.58296942316673     -0.09635893922611
  H   6.98678086871604      2.45730057802286     -0.07479407269646
