22
Coordinates from ORCA-job 4640optt
  Br  0.91243234506217     -0.01823477184246     -0.70505915348857
  C   2.73564453473022      0.12745904211087     -0.07528069589931
  C   3.50164550109296     -1.02777240354373      0.14717793928539
  C   2.86917843611018     -2.30657280489276      0.42928363932369
  C   3.51375478251602     -3.47704302729656      0.46432126304710
  C   5.00557527700388     -3.51173505078992      0.16370741538991
  C   5.64217114348586     -2.19016680299098      0.65050092274751
  C   4.90430859352733     -0.97059127129828      0.15349186683367
  C   5.67882935058036      0.14746085078438     -0.16056099610750
  C   5.20382445138136      1.44432549923306     -0.44640999112864
  O   5.84864322649868      2.43710276602846     -0.74573495468990
  S   3.39571275307182      1.71517018332016     -0.31159095355145
  C   5.24011213539059     -3.70703538185082     -1.27895957526027
  C   5.43922670935047     -3.85775151692057     -2.44946841940400
  C   5.64112626350766     -4.63051728489413      0.88489298656078
  N   6.14176103762426     -5.49031122275008      1.45542679252971
  H   1.79866251458627     -2.30514724483436      0.59429060882414
  H   3.00863078511468     -4.41754866907629      0.63252132419347
  H   6.68672697549426     -2.15838179678783      0.34318948033207
  H   5.61229713737623     -2.21350638583083      1.74625818170856
  H   6.75843624982372      0.05345362162521     -0.18145076664318
  H   5.60329979667094     -3.97865632750251     -3.49254691460318
