24
Coordinates from ORCA-job 4643optt
  Br  0.78553614505898      0.01477160719709     -0.08297964078162
  C   2.69737455258676     -0.01009193997023     -0.07257202932999
  C   3.38895975457269      1.22249952904960     -0.07020215673412
  C   2.66402123405741      2.53805243301635     -0.06960333754418
  C   3.57074731284775      3.72766563173990     -0.06459413796834
  C   4.89435049355046      3.64980079217417     -0.06316470644756
  C   5.64824389518482      2.35896819828370     -0.06588094017173
  C   4.78015264207292      1.12292315373771     -0.06728833995532
  N   5.44993609542134     -0.01828576908321     -0.06515726302477
  C   4.77426399212630     -1.20063097282735     -0.06419396040927
  C   3.34333369060413     -1.21685996219155     -0.06919836127530
  S   2.49340348322382     -2.74580406287325     -0.07322539391017
  C   3.82873334700667     -4.01006267202674     -0.04570058927026
  N   3.42120121680778     -5.22912918611459     -0.02882448555642
  N   5.11633236630135     -3.65579775442495     -0.04776128997484
  C   5.52531479243286     -2.38892236171731     -0.05776018859032
  H   1.99116310432463      2.59527918371164      0.79551546255411
  H   1.99560850635195      2.59908805521532     -0.93788375811470
  H   3.09126372642559      4.70172211362939     -0.06217193636433
  H   5.48121251566242      4.56365169820424     -0.05979720440498
  H   6.31335026963704      2.30815529785507      0.80251361662938
  H   6.31246334901702      2.31114601437852     -0.93517849724422
  H   2.40580623996705     -5.27485320000744     -0.03051453517427
  H   6.60122727475821     -2.23928582695609     -0.05837632693679
