22
Coordinates from ORCA-job 4648optt
  Br  1.05256871378788     -0.21856087635406      0.27083015455342
  C   2.93373520710569     -0.13769243318944     -0.04590516749824
  C   3.60498406240470      1.09363944824754      0.01664200475931
  C   2.98180060520623      2.35049190960180      0.00835024582951
  C   3.73754098836903      3.51854698885508      0.02744947429230
  C   5.13880506605528      3.45003325370925      0.06150096688472
  C   5.76382680066332      2.22406415034644      0.09379197201452
  C   5.04047912494003      1.01409361549358      0.09010579828830
  N   5.72265341821454     -0.14327287775129      0.17800236491250
  C   5.09275764632768     -1.31819581735349      0.16652452309173
  O   5.62862528843161     -2.41676672946910      0.23751753451272
  N   3.64230223100080     -1.31770023851297      0.05623911063295
  C   3.01612289056451     -2.58983987191447     -0.19796814100430
  C   2.50494367165947     -2.72688180146259     -1.57452269791437
  N   2.10344880521852     -2.85948301166289     -2.63986069243426
  C   3.09436797897996      4.79481100995292      0.02017906862484
  N   2.59173173107759      5.83048660128548      0.01648089970866
  H   1.90274832999439      2.41387537858145     -0.01523279007002
  H   5.71581175713025      4.36552355390359      0.07476062504353
  H   6.84176234657095      2.14715486658984      0.14502336624123
  H   2.18336389256742     -2.76159943066507      0.48564971551187
  H   3.78461944373003     -3.34372768823165     -0.03355833598090
