26
Coordinates from ORCA-job 4650optt
  Br  1.52474831873821     -5.89051998323157     -1.36511739469635
  C   2.77022622549695     -4.73190108171633     -0.50059928737255
  C   2.45755182689411     -3.41124869667647     -0.30315200976237
  C   1.18837655673956     -2.74184463107139     -0.73173705216383
  C   0.40142162080087     -2.50026739953337      0.35518819362705
  C   0.76597405216080     -1.17815590212481      0.82627356910999
  C   1.74051785044293     -1.37128183209738      1.76041737510799
  C   3.10669210568202     -1.31094144121423      1.13498162023747
  C   3.41648316187669     -2.50795921138480      0.34755179195677
  C   4.81203856968245     -2.96191416592240      0.31036804956981
  C   4.99746759939093     -4.39294904830046      0.26665028485103
  C   4.02028704735512     -5.25673394521539     -0.12332504965637
  N   5.92320229977087     -2.26579006353572      0.30867860367593
  C   6.06114308475536     -0.89893724454105      0.19137741108451
  N   6.97609541814909     -0.44443329174019     -0.59567841526825
  C   5.26835242889276     -0.02774931053009      1.06105963438961
  C   3.98621167313987     -0.27113407638024      1.46751592536454
  H   1.36318671721923     -1.90166594053410     -1.39765082416707
  H   0.28493647933427     -3.28030723351562      1.09998813961776
  H   0.91084318297860     -0.40946829180901      0.07542005744695
  H   1.59986246970565     -2.20892205391115      2.44118722397471
  H   6.00179559250539     -4.74203184393415      0.46945594944558
  H   4.21196122454651     -6.31812177539171     -0.20736084067160
  H   6.97332459985316      0.57271670902709     -0.53636508646850
  H   5.74571369233245      0.89208990690022      1.38183334497018
  H   3.54858620155609      0.46947184838434      2.13103878579698
