21
Coordinates from ORCA-job 4652optt
  Br  1.21052874086235      6.28916976782204      0.60133960184437
  C   2.94399006744623      5.54921114037258      0.37211244333212
  C   3.21830383668471      4.25635146243815      0.11722074129637
  C   2.09118750152685      3.35508979410031     -0.11123095457941
  C   2.02004750215053      2.00788113597591     -0.11863121743902
  C   3.06760885060570      1.06262409305512      0.05218427462320
  C   4.40570964930863      1.33351896518150      0.10442279204651
  C   5.11920455708991      2.55223048232273      0.03333631648861
  C   4.65356776907473      3.89508175747949      0.00315103631208
  C   5.58849550221208      4.94249708413571     -0.12218064147104
  N   6.88648606360124      4.90147346024588     -0.44229944810402
  C   7.61040362229290      3.79079133679066     -0.50176994182175
  O   8.76436844115380      3.67564992096061     -0.85874745635608
  S   6.84689641831242      2.24296113650002      0.09432140629308
  C   5.16725038323433      6.34390807899287      0.14647753535103
  O   5.86741654716335      7.30879832158027      0.14656300524355
  O   3.84531936206668      6.53807394676405      0.49438655787853
  H   1.15544876193117      3.86647936402291     -0.28488912853397
  H   1.03065343279713      1.59281787698864     -0.28274532144664
  H   2.78095869473612      0.01875371930218      0.09339364065048
  H   5.04715429574902      0.46063715496828      0.17858475839198
