27
Coordinates from ORCA-job 4661optt
  Br  0.99886424731059      0.21761187822552      1.90052343643314
  C   2.79146145308481     -0.15384420373444      0.32252493790179
  C   3.50555272171154     -1.32187654137848      0.23824230875461
  C   3.16545634048769     -2.71071099451604      0.30075415381123
  C   4.32724437692708     -3.42237351887384      0.13407554296551
  C   5.44686438352246     -2.52500401583330     -0.04179976189901
  C   6.88671913652901     -2.92322005368784     -0.15965244526404
  C   7.52179453105110     -3.24996079560088      1.16925428662879
  C   8.80007461211821     -3.62987015369030      1.51218559467848
  C   8.82938925837083     -3.81317249736814      2.92107864596617
  C   7.56870520626480     -3.54127515680765      3.39099054200547
  N   6.79420822595361     -3.20306540600410      2.31936276328293
  C   4.92790087155899     -1.25669945427246      0.03567596854002
  N   5.53342857481986     -0.00726373618598     -0.03899890537032
  C   4.84842743491729      1.16815109636569      0.04680852891546
  O   5.37776276754431      2.26614775664879     -0.02624855167993
  N   3.47962357332094      1.01398402121747      0.21615083160753
  H   2.17037558093049     -3.09681452962928      0.45541748281197
  H   4.41698943863282     -4.50118218054950      0.12840687724117
  H   7.46486163297126     -2.12843972245078     -0.64193434952855
  H   6.97850934890709     -3.79499413625125     -0.81477225476079
  H   9.61966981454961     -3.75836656557889      0.82323130911457
  H   9.67548795116977     -4.10571092906160      3.52155348885355
  H   7.16542220588618     -3.55685892872498      4.38871023249351
  H   5.81485395360001     -2.95420977145046      2.32612511601584
  H   6.53087454037597      0.08819681970952     -0.14421250056516
  H   2.97447781748348      1.88082171948330      0.33554672104603
