23
Coordinates from ORCA-job 4664optt
  Br  3.72507595157943      4.32676653962570     -0.23618879836259
  C   4.68517604625481      3.02100350392676     -1.19778794834521
  C   6.03434660189455      3.17067697476135     -1.47251919150217
  C   6.76969770461171      1.93519442088703     -1.84283163414182
  C   6.15102376769153      0.92732600348220     -2.47516293866507
  C   4.75240167793960      1.21976859120914     -2.84571576746355
  C   4.67231176784690      1.62615553947886     -4.13653180755622
  C   4.26011510568081      3.01478150356755     -4.39905776992008
  C   5.33794428409276      3.88154164303073     -4.26889523164620
  C   4.82372124855919      4.99775989187375     -3.54488420573569
  N   3.43963358118280      4.98012761759839     -3.52959391094921
  C   3.11304251320601      3.78326092628590     -3.96093704202379
  N   5.52868862438736      5.82771278659392     -2.76277129428529
  C   6.43512462831201      5.46918634501517     -1.88021650681171
  N   6.77001605877647      4.29189729201276     -1.35948500399936
  C   3.93656155419414      1.94581037969273     -1.81248137457227
  O   2.74453197121124      1.72418333828203     -1.67562367086804
  H   7.83159712152907      1.93032797860651     -1.63185758673717
  H   6.68630537442583      0.06866928182990     -2.86253638308536
  H   5.40757964809317      1.21557335457051     -4.82627968766115
  H   6.38432754537013      3.61874888771623     -4.32679632129746
  H   2.08970662936542      3.43372704362446     -3.95439876053396
  H   7.03907059379500      6.29580015632839     -1.50744716383661
