27
Coordinates from ORCA-job 4668optt
  Br  7.57001975621700     -3.90158622908060     -0.78248288017338
  C   8.04917934577500     -2.07083642896250     -1.12059448245879
  C   8.53517604651363     -1.31335410646435     -0.00980019299705
  C   9.65755932297538     -1.86072724623386      0.67507446812619
  C   10.64610039699419     -1.23569815946693      1.39937068118434
  C   11.86387087456229     -1.38998301355918      0.63447540825341
  C   12.56475583642480     -0.34141363254152      0.15497081871293
  C   12.88926356196250     -0.20776832287168     -1.31555768366399
  C   12.16984520414045     -1.25602291930127     -2.21035696854397
  N   11.02110896113796     -0.35039260204484     -2.27581613722191
  C   11.83514776931276      0.80744410705880     -1.87816432499514
  C   9.71548295527865     -0.50839318008812     -2.42652652630986
  S   9.08920315313543     -2.12068043966941     -2.71962510207892
  C   8.74595838191872      0.43702782273535     -2.05787943882755
  S   8.47544621409022      0.45599450869017     -0.34224270652522
  O   9.54549025291681      1.12114210287084      0.37684598750776
  O   7.13380955046717      0.95060635715493     -0.13577006527214
  H   9.93983560590482     -2.83545261143678      0.27172392924182
  H   10.46819289971064     -0.27765216348522      1.86251833314653
  H   11.95317567078754     -2.34362635964832      0.12191946789317
  H   12.40731245822520      0.61627143646167      0.64267918187092
  H   13.92430732873011      0.01032136940423     -1.58740479910231
  H   12.63323636667457     -1.35039699694720     -3.19776940621888
  H   11.94365608677116     -2.24441201050446     -1.82070137988166
  H   12.16979461817719      1.35137201404145     -2.76854071190015
  H   11.35849490777064      1.46592088172765     -1.15818823742712
  H   7.77757647342494      0.20229582216119     -2.48415723233903
