24
Coordinates from ORCA-job 4672optt
  Br  1.03002193233052      0.04842115519385      0.14712334731085
  C   2.91333000255106     -0.16412135148239     -0.08271883376378
  C   3.56203755250725     -1.33085627885979      0.11382708127999
  C   2.87862102714490     -2.59087751393585      0.58018750990771
  C   3.53334300940837     -3.87376644410094      0.02318564441348
  C   3.21003632572823     -4.04785590166195     -1.39867560250443
  C   2.92939026547899     -4.18707362599595     -2.55564497607103
  C   5.01729392111187     -3.79368807756826      0.23584763114729
  C   5.95558631860323     -4.73944139800401      0.43214711061032
  O   7.18998245160815     -4.18552006610396      0.50192241744338
  C   7.02392152118510     -2.82817002861130      0.34310867799204
  C   5.69691381682869     -2.52331552651782      0.17863647710239
  C   4.99069741855990     -1.29756012883965     -0.01753514915054
  C   5.62572199007729     -0.06373817800011     -0.27775379930630
  C   4.91995843177159      1.12860079175980     -0.46570187218861
  O   5.30893524030488      2.25862316420855     -0.68909722685368
  O   3.47988431103277      1.01144292098898     -0.39900872315544
  H   1.82415369325826     -2.57979484093339      0.31191926285975
  H   2.94268646626121     -2.64575433955026      1.67230032634964
  H   3.12249186709862     -4.73295594930037      0.56028928909278
  H   2.69225555667720     -4.28958216507287     -3.58631605403211
  H   5.90722733099155     -5.81205999944702      0.52107200104431
  H   7.92073943752101     -2.23710573823993      0.38135442514035
  H   6.70077011195931      0.00314952007467     -0.36346896466833
