27
Coordinates from ORCA-job 4676optt
  Br  4.96828235532115      1.22844514363306      3.34751933212454
  C   5.56307187154903     -0.26240569592883      2.33110777180370
  C   6.04166485333483     -1.35654004483461      2.98218594555680
  C   6.34309425200735     -2.61224041541054      2.19357567739846
  C   6.13856832407343     -2.42853762155512      0.67785126930693
  C   6.75925770989269     -1.10463668483854      0.32916674917764
  C   8.22156548483266     -1.08717468729298      0.18638059411464
  C   8.98042686200485     -0.86534394972242      1.29492970098069
  N   8.42396919306293     -0.48177292611729      2.49158810224261
  C   9.05809327839787     -1.13501390463676      3.43007455698712
  C   10.38659405526794     -1.67104593683351      2.89788704774478
  N   10.33206375337446     -1.23859254656927      1.49496683036788
  N   8.64621658140503     -1.41712458979137      4.65630139304399
  C   7.32244453654449     -1.41240572829623      4.99087361842938
  N   6.20605610525178     -1.42211344353273      4.33624996336562
  C   6.03622444197925      0.02035438906192      0.96752022614053
  N   5.92497477232745      1.18079213930525      0.43615089874087
  H   7.37372262233229     -2.91310054573475      2.40491781261517
  H   5.69685323072443     -3.40360713262302      2.58540271334420
  H   5.06838319904887     -2.43160765235569      0.45168396783190
  H   6.61182783035875     -3.25169819633101      0.13859766343607
  H   8.67696760436818     -1.60360267804108     -0.65401840341944
  H   10.41674508707158     -2.76146405368000      2.99540923299548
  H   11.23417437844655     -1.25096810955268      3.44165641426536
  H   10.65963149656954     -1.92628034265334      0.83234728412475
  H   7.18734144913858     -1.48896945244183      6.07030062783986
  H   6.41378467131390      1.16665466677341     -0.45962699055956
