17
Coordinates from ORCA-job 467opt
  C   0.80814058343754      2.14827522013788      0.32176880105932
  C   2.29209410016240      2.24834429706442      0.61695714791193
  O   2.98419923988225      1.47223716918276     -0.31880298242964
  C   4.44001887594692      1.50323287661213     -0.10962944861065
  C   5.09789822590798      2.81709391086002     -0.08466076569327
  N   5.25834702864554      3.43223506939854      1.09824334834852
  N   5.79841507065631      4.73151881583521      0.91841551446929
  H   0.22979712856051      2.73786740846424      1.03838119031242
  H   0.47292848407460      1.11040419244095      0.37090463128043
  H   0.60361412138286      2.52308781724564     -0.68272939582987
  H   2.50902655703964      1.89481045039414      1.63789280183976
  H   2.62809685051441      3.29115115059325      0.56919637220931
  H   4.80667324414086      0.88030192816083     -0.92828170203063
  H   4.60772811627650      0.98724125685304      0.84953171618909
  H   5.60073286590887      3.18811798080873     -0.97841245018610
  H   5.67314956740609      5.21896539452755      1.80010488560754
  H   5.21713994005665      5.23511506142061      0.22912033555255
