24
Coordinates from ORCA-job 4680optt
  Br  0.94541075658691     -0.12814148666177      0.18605718027338
  C   2.82673483849945     -0.17618186139134      0.02668563264169
  C   3.49085555018267      0.94002246432929     -0.28201781080104
  C   3.05500416622902      2.36082454337403     -0.50558388462456
  C   4.34369008345567      3.17311959468654     -0.20437384555677
  C   4.49285977256730      4.37976509389554     -1.00560885295735
  C   4.58482733803665      5.37356852256452     -1.66759854650384
  C   5.44361638045191      2.14225451033962     -0.38723622586163
  N   6.69159618807256      2.33853656698512     -0.43585218302560
  N   7.44356487231510      1.17819751225061     -0.63722228768310
  C   6.99920427643428     -0.10932573204975     -0.14425014547572
  N   7.86169393181660     -1.03429087392880      0.14764479200151
  C   5.58955582691084     -0.27876819995679     -0.09594020861175
  N   4.93860227723667     -1.40141887091397      0.20381508966294
  C   3.57615285570297     -1.44711451577353      0.25572418431207
  N   2.89032995546186     -2.51076161287654      0.50493629080326
  N   4.85894306008020      0.89694324096121     -0.41172476132615
  H   2.21943140818291      2.63811048516262      0.13203930821693
  H   2.75363255358072      2.50252103976558     -1.54532942094276
  H   4.34040844139664      3.45857246506305      0.85218547691991
  H   4.68250793700518      6.25237254494350     -2.25702296255620
  H   8.39239255117561      1.36065353124866     -0.34577757170170
  H   8.80812483112077     -0.68642033805529      0.00002571834870
  H   3.55886014749736     -3.26803862396212      0.64242503444779
