25
Coordinates from ORCA-job 4681optt
  Br  0.61696222476497     -0.80114440155475     -1.30961627604486
  C   2.88839817669034     -0.24115363214162     -0.09011510505816
  C   3.54361727505940     -1.37651372674473      0.35369923386123
  C   2.77426441406870     -2.58405904657609      0.82292045802198
  C   2.71198639314936     -3.69070016229791     -0.25141492868364
  C   1.80260608113213     -4.75708764681321      0.16998601331824
  C   1.04865942317441     -5.60367937599325      0.55621392664447
  C   4.07996760735730     -4.24703627465399     -0.55896078103264
  N   4.26804424421050     -5.29505930899854     -1.29520696570422
  O   5.60230116256093     -5.49791426710146     -1.34695993704413
  N   6.26649876271757     -4.56291000980312     -0.62946472053381
  C   5.36790721842162     -3.77648878337642     -0.12810983225192
  C   5.71686350954652     -2.59986307636616      0.72587329830490
  C   4.94265204342590     -1.36541818146589      0.31701391806400
  N   5.66383540107475     -0.32131332002748     -0.08534520807024
  C   4.99970916020852      0.76185213578886     -0.49186245339519
  C   3.61541381379282      0.84785107727249     -0.53105933925793
  H   1.74985790715466     -2.27973701741306      1.02766494593731
  H   3.20180565318471     -3.00581264026888      1.73788541566530
  H   2.30019254196905     -3.22322360656253     -1.15391193465359
  H   0.37101113173776     -6.35499383706682      0.88040847083703
  H   6.78205626536000     -2.40015461212514      0.63495869386811
  H   5.50170419654928     -2.84709695261121      1.76997075891770
  H   5.61294837707797      1.60116291707601     -0.80963927821734
  H   3.12873701561075      1.74049374982496     -0.90592837349260
