25
Coordinates from ORCA-job 4684optt
  Br  0.82071106033908      0.10431004511350      0.00517659030447
  C   2.70671635221965     -0.03917762692787      0.19335605172281
  C   3.32946998467209     -1.23199474265903      0.52092800853046
  C   2.86582277061329     -2.67276461321150      0.56012895076384
  C   4.12095677876541     -3.44506678459769      0.00501162456879
  C   4.08102974980857     -3.47671854803506     -1.45351863174308
  C   4.01257056406724     -3.48380357871674     -2.65021428204302
  C   5.31737798864511     -2.58634787480394      0.52790961185871
  O   6.45977952105162     -2.41574989003760     -0.30857912475415
  C   6.82199560422238     -1.01165521691672     -0.33609633399658
  C   5.57363545371217     -0.26761341692457      0.06327843355097
  C   4.93813217753832      0.89716919000370     -0.30761411465795
  C   3.53253915403688      1.07534425629063     -0.17873573415929
  C   3.33211463711156      2.36608991232820     -0.67097693058866
  N   4.44888707025572      2.96312982454079     -1.07752906843591
  O   5.47469789936977      2.00409374992436     -0.84893697763606
  C   4.70365781333326     -1.24538566837738      0.58721568645566
  H   1.98357485700603     -2.85037392625451     -0.05452829959617
  H   2.64435878479025     -3.01327412144963      1.57634901242466
  H   4.15470011267675     -4.47326070569362      0.37679747036356
  H   3.96327942241138     -3.46707196412838     -3.71141220908869
  H   5.65389909725245     -3.00544753151380      1.48963944764039
  H   7.15376439952911     -0.77218704141627     -1.34806877373000
  H   7.66494367017283     -0.86274667550144      0.35039688861800
  H   2.39638507639898      2.89450294896462     -0.77997729637274
