21
Coordinates from ORCA-job 4691optt
  Br  1.12081857000544     -0.21075209710426      0.00526733802668
  C   3.03496000480386     -0.09820400905671      0.00720126449101
  C   3.63841937933097      1.15391599231339      0.00656807783789
  C   3.15959514419200      2.49385729112504      0.00491500607448
  C   4.26181322962086      3.32112716651611      0.00453839771594
  C   5.46178673810178      2.54303129407983      0.00597771048596
  C   6.77906313734960      3.05382033916896      0.00562908619169
  C   7.90256056957619      3.49620031454987      0.00522729143495
  C   5.07484349530586      1.19451697162629      0.00738990773153
  C   5.78972651354988     -0.04081469235727      0.00926190923115
  C   7.15842421690551     -0.21278649841267      0.01044268912786
  O   7.69822070488449     -1.49064995001303      0.01224367709026
  C   6.93483717408214     -2.59310930652067      0.01270065294116
  O   7.42984328759061     -3.67905600046124      0.01404232551985
  O   5.60530381081761     -2.44281226129455      0.01163936621492
  C   4.98744091231359     -1.19370186873391      0.00989495823001
  N   3.67547066306363     -1.24889601793794      0.00883928701072
  H   2.12244976736731      2.78983224703810      0.00409177343207
  H   4.24738290995810      4.40199545954617      0.00331986920067
  H   8.89073877477448      3.88524431970023      0.00480008498513
  H   7.90830099640604      0.55724130622826      0.01000932702609
