28
Coordinates from ORCA-job 4694optt
  Br  1.05124211183579      0.01140993696668      0.62282688718771
  C   2.89193924765840      0.04818091275069      0.10498734683044
  C   3.64940912372918      1.19981653049736      0.31362967466022
  C   3.05207711182651      2.42611908691851      0.87522124547079
  C   3.27960418428530      3.62534446312547      0.34095229393894
  C   4.14026834044058      3.81149466601380     -0.87798324128806
  C   5.63421453540588      3.59228419824927     -0.59567081956221
  C   5.87552690200027      2.36755256751426      0.29075252390218
  C   5.01398559759057      1.17079758728563     -0.05120569941081
  C   5.53101254745193      0.03492317573426     -0.66877823254568
  C   4.73625396278166     -1.07939072520946     -0.88745537294256
  C   3.40946314719459     -1.08936159427678     -0.48670257545335
  S   7.66594296698466      2.01447976085467      0.38217506971838
  O   7.73563151707697      0.86255308256635      1.26438091521951
  O   8.15999434150164      1.84729276012009     -0.98318303770343
  C   8.33596033499486      3.45600715656026      1.06414847731622
  O   7.91914170755640      3.90236088340910      2.17018391237447
  H   2.39171396644922      2.32251444820812      1.72792246559704
  H   2.82698806904022      4.49830601591410      0.79827870993145
  H   3.98991599251221      4.80385232461206     -1.30518619796985
  H   3.82508944023205      3.08326667042652     -1.63113547515773
  H   6.06183595155695      4.45588411456340     -0.08367861217295
  H   6.16880422890582      3.46910825068246     -1.54088505397392
  H   5.66010180111521      2.64991760784434      1.32548783881458
  H   6.57288493840248      0.02098624362168     -0.95673845718277
  H   5.15822357563584     -1.95762776056786     -1.35944498074269
  H   2.78278456141219     -1.95766679342876     -0.63517416767824
  H   8.97798979442249      3.98159442904373      0.34927456282234
