17
Coordinates from ORCA-job 469optt
  C   1.02260916077434     -0.00981464110860     -0.50259280738023
  C   2.51045912175870      0.22293857062064     -0.32983971802020
  O   3.14137852460359     -0.39523251479723     -1.46258692388933
  C   2.93619625669740      1.66923172336650     -0.17755801367997
  C   2.00119885635661      2.70313997108974     -0.21460340952162
  C   4.31931015655790      1.86937286049038      0.01035814684083
  C   5.32844479895463      0.91614450392251      0.15144930492091
  H   0.47200238447798      0.35765114299166      0.36421624008485
  H   0.83336975965637     -1.07836840695208     -0.62244313456996
  H   0.66506693683600      0.50857666678081     -1.39351116033105
  H   2.84225596500863     -0.32050004832165      0.57088653990959
  H   4.02417402016319     -0.00283175554367     -1.51681652343243
  H   0.95059181598310      2.53858015904205     -0.40361705985631
  H   2.32117069966513      3.73009994833294     -0.07869924799165
  H   4.63422605382998      2.91208989530622      0.03413785573287
  H   5.12447567703730     -0.14555117476392      0.24042533113129
  H   6.35106981163909      1.22647309954368      0.32179458005242
