26
Coordinates from ORCA-job 4702optt
  Br  1.00440828531636     -0.11402407903055     -0.36929640321191
  C   2.91483728100243     -0.08776275134707     -0.24984784711641
  C   3.57850941139346      1.12107046912351      0.10377323807933
  C   2.81843012815149      2.32026348182844      0.42365850321457
  C   3.17700614231938      3.57747903988678      0.11039432267730
  C   4.35925798939036      3.88168227583865     -0.76993464344562
  C   5.71612987225266      3.60131991495981     -0.10360796642740
  C   5.67074344634205      2.38145064446691      0.81420126713970
  C   5.00468914946022      1.15074071615713      0.22673238156987
  N   5.83326320327348      0.16942987146608     -0.01287615527294
  S   5.31276402997029     -1.31172079221811     -0.56610065572785
  C   3.51068550980097     -1.31246508983637     -0.59809784686949
  O   2.98995520606023     -2.37182663874794     -0.93334766700334
  C   4.33394749955897      5.29955676793805     -1.26738417196141
  C   4.80225894646124      5.66173332572116     -2.60594851428618
  O   3.41843420565482      5.63460000368851     -2.29758645273861
  H   1.86601214803921      2.17369960971478      0.92168260162987
  H   2.54306598950798      4.40390449388985      0.41539547003014
  H   4.28336865346955      3.21734900710300     -1.64009380441162
  H   6.02646922214439      4.47084637632515      0.48832958593245
  H   6.46818083864644      3.46146790042344     -0.88612406540769
  H   5.13205371737161      2.65953733110499      1.72315254532259
  H   6.68346760323403      2.09299690010484      1.09203360192186
  H   4.40722599616753      6.06135354172491     -0.49178248262181
  H   5.13968522327145      4.87223971596648     -3.27008159780057
  H   5.21515030173935      6.64807796374754     -2.79224324321482
