25
Coordinates from ORCA-job 4705optt
  Br  2.36801809298027     -0.55003598838771      1.52432207576971
  C   2.02556903110158      0.50136078948173     -0.07196666206324
  C   2.80207879502744      1.62048945383321     -0.29632490563282
  C   3.23201070968831      2.56282631289407      0.84795466886119
  C   1.89948895840589      2.89519119874677      1.45929107534510
  C   1.00867404705554      3.72468684589799      0.89249496820981
  C   -0.34896503485540      3.23138159874375      0.73481275768724
  C   -0.98780835002777      3.39232177022131     -0.43142749008753
  C   -1.85386787654072      2.33521200764805     -1.01770607004179
  C   -1.84390077543325      2.20579752096436     -2.49424003170343
  N   -1.15446374308327      1.20445634812589     -1.71424959436931
  C   0.26931320780076      1.22194570636186     -1.63465727640123
  N   0.92724714460447      2.14611040150246     -2.22509346934872
  S   2.59393168560452      2.30626656910498     -1.88086301609598
  C   0.83106826326130      0.12666047848039     -0.76376892410744
  O   0.19683778426344     -0.92554990341111     -0.59598533713567
  H   3.73646572859950      3.43243416315975      0.42880379336800
  H   3.89750510968811      2.05263777583093      1.54385202463097
  H   1.50676173009627      2.10758467728637      2.09690308406838
  H   1.34723240233803      4.46444834439872      0.17125705788781
  H   -0.65819805389606      2.43294638911779      1.40676426246930
  H   -0.58696196188712      4.11893972240646     -1.12954532677660
  H   -2.70972913008183      1.99243090873379     -0.44734131645596
  H   -1.23675142106917      2.92853937184276     -3.02886281500163
  H   -2.71355634364083      1.83191753701542     -3.02242353307617
