26
Coordinates from ORCA-job 4708optt
  Br  6.49716879477611     -3.53451298576518      0.13966009193779
  C   7.37172935163003     -1.83459182215508     -0.06630859893614
  C   8.13250777613649     -1.61929619900503     -1.25990705099241
  C   9.30605847162456     -2.43965213139477     -1.43457789711630
  C   10.34556098104439     -2.20763001954459     -2.27944549740334
  C   11.58552977833844     -2.03819491630120     -1.54983216000875
  C   12.34956345333668     -0.94696778777039     -1.70790843957211
  C   12.91145418366770     -0.22579124120753     -0.51456939346791
  C   12.17494340911428      1.10274107878506     -0.40370499501974
  O   11.63065761918938      1.51869320565176      0.84303406107093
  C   10.71987160932261      1.31340824739543     -0.23346649834819
  C   9.62387840518829      0.32321822999542     -0.04935205123211
  C   9.34107176240823     -0.26114130757181      1.11835354395006
  S   8.01496968992333     -1.31743472238397      1.50888712601082
  S   8.47309653113828      0.08210392748292     -1.40274737413930
  O   9.19681847792259      0.43332562846740     -2.60611596623506
  O   7.29794708588574      0.85574340503470     -1.07648863114980
  H   9.51337939147451     -3.08604267051574     -0.57757460672692
  H   10.19997869612638     -1.58727481758203     -3.15334389488884
  H   11.66361464574981     -2.58281663338392     -0.61010685948435
  H   12.20503184348097     -0.34314729536753     -2.59989518921583
  H   13.98341333766233     -0.00740764899626     -0.57119051027353
  H   12.73422092326560     -0.80817534884958      0.39110267757739
  H   12.67123191330989      1.91512021318889     -0.93361246474416
  H   10.35257154412677      2.24182989722219     -0.66791037314438
  H   9.97073032415636     -0.05610628542916      1.97802095155218
