28
Coordinates from ORCA-job 4714optt
  Br  1.18511734874005      0.49935758486180      0.31075593469617
  C   2.91278113070707      0.10005901546198     -0.58649502694796
  C   3.62061980369081     -1.03181262417782     -0.16622964034926
  C   2.90340528309084     -2.27681111993218      0.28150556750436
  C   3.80264080586569     -3.50770304023001      0.23455231323045
  C   5.15822753507261     -3.19954114802665      0.85750306472612
  C   5.88755243100921     -2.12329993821875      0.04165636741650
  C   6.39388740974344     -2.67949735385529     -1.21787735401733
  C   6.79460192985031     -3.15953017021921     -2.24218730936558
  C   4.99850292285838     -0.91602459342178     -0.22065341384193
  N   5.66010530727811      0.21937722937593     -0.49583572790369
  C   4.95044802099289      1.32134726225309     -0.78297413871219
  O   3.56019639037525      1.22902708298890     -0.93479639389879
  N   5.39251504069644      2.50695501212025     -0.99202761371114
  C   6.83242166484671      2.63219364765909     -0.91142775866880
  C   7.33149918197371      2.82118787247866      0.46038174387387
  C   7.73829882182777      2.99237010684778      1.57650991764426
  H   2.01643582589048     -2.42842763881156     -0.33760602437154
  H   2.53436469063838     -2.13370037383411      1.30473773543779
  H   3.95737270360398     -3.81687101277795     -0.80350435548559
  H   3.32332471550604     -4.34059425343923      0.75440966630755
  H   5.77888983903350     -4.09558470401746      0.91887611448062
  H   5.01445245133220     -2.81788748260957      1.87285337645706
  H   6.74957621860434     -1.75004577641145      0.60038619244360
  H   7.15043782818333     -3.55799355069609     -3.16051629347802
  H   7.13245055632083      3.50897444993237     -1.49141833672717
  H   7.34569852619610      1.75717337729506     -1.32799066675530
  H   8.08117561607140      3.13030213940420      2.57241206001594
