31
Coordinates from ORCA-job 4721opt
  Br  0.88599629766380      0.18701301767587      0.03724722471173
  C   2.83110711168137      0.17370373894999     -0.09922000589099
  C   3.53052554164357     -0.99421947691435      0.06826004939530
  C   2.90001092053150     -2.33980820330287      0.28931565753842
  C   3.29197850671374     -3.38538965338991     -0.77155708845800
  C   4.58642086648117     -4.17802435474141     -0.48428308651323
  C   4.51820692992000     -4.94142779184523      0.86561341487855
  C   3.30578724322520     -5.73385535173504      1.04047449421183
  C   2.30272415074080     -6.37604604539616      1.16908771999245
  C   5.86460024180298     -3.31037246048388     -0.51268187425465
  C   5.84138997106387     -2.06420047083632      0.38921704556246
  C   4.97443659049172     -0.93118925957925     -0.06415865683676
  C   5.55494672180926      0.31418780459499     -0.41345935627966
  C   4.80794585469613      1.44733558577498     -0.60375953550696
  C   3.39274817715521      1.41944933945586     -0.42177544459284
  C   4.72826489594017     -5.19390199580055     -1.54330876197761
  N   4.85343792826886     -5.98379821746083     -2.36731497332331
  H   1.81669261681386     -2.24509185250568      0.27912043324927
  H   3.14928859870724     -2.72164527054227      1.28607712749127
  H   3.40917178201366     -2.88641932214243     -1.73576645106494
  H   2.48684817165741     -4.11550010246891     -0.87288847464226
  H   4.59574766970204     -4.21859440490030      1.67786022031525
  H   5.38963410712244     -5.59565398435721      0.93830204627100
  H   1.40976003483274     -6.94209189679552      1.27763801722762
  H   6.02782251099072     -2.97960122329349     -1.54023608309369
  H   6.70693572504518     -3.95847163041275     -0.23767344942803
  H   6.87351597423819     -1.70327036116439      0.43234695940107
  H   5.60890496338964     -2.37648981651379      1.42284217366834
  H   6.63372953325844      0.36579799896266     -0.53846042278427
  H   5.29278811934775      2.37245011155966     -0.89525411503200
  H   2.78663224305093      2.31112554960868     -0.45860480423534
