25
Coordinates from ORCA-job 4729optt
  Br  2.75355376158524      0.66012585967611      1.73785991154961
  C   3.21813196395871      0.09008069985527     -0.11282036993607
  C   3.67119102176218     -1.23282589533010     -0.29203119442340
  C   3.36815087062704     -2.50452127812632      0.22464313346237
  C   4.22521442846308     -3.37640260465297     -0.45258029739567
  C   4.34183346080571     -4.85656066596890     -0.25141479219775
  C   5.81706955308801     -5.23849564529174     -0.03603660249020
  C   6.43265726925136     -4.52953832522433      1.18570440161998
  C   5.77898801523659     -4.88132330799839      2.44228350605731
  C   5.22849694958349     -5.17762987643990      3.46400238900175
  C   5.97998436112604     -6.69151720793293      0.06282016156440
  N   6.10213248864625     -7.83036340513505      0.13160389402071
  N   5.04996680278976     -2.74964101042112     -1.32284700032608
  C   4.70916807549501     -1.44683997755523     -1.22375508402569
  C   5.34552858040820     -0.31054557963718     -1.78504327562339
  N   4.97599580944992      0.90853820217657     -1.59493208565083
  O   3.79702552314262      1.08492302772481     -0.82082903522415
  H   2.64955973583491     -2.75545874903745      0.98930392890915
  H   3.97272449976848     -5.40518496672205     -1.12192814208044
  H   3.75409977454254     -5.16851220817316      0.61388957095959
  H   6.36844555594227     -4.89964600907310     -0.91584205202800
  H   6.33300406600099     -3.45615785781198      1.01104479669004
  H   7.49612022319941     -4.76565139352200      1.25227702934709
  H   4.73327697014537     -5.42713240754806      4.37066756379024
  H   6.23868023914645     -0.40671941783062     -2.39504035557061
