29
Coordinates from ORCA-job 4735opt
  Br  0.41292013052272     -0.16311220017556     -0.42973443591390
  C   2.90191790881112     -0.03039128538628      0.41690927163565
  C   3.39246777226010      1.21248907450742      0.12223854093215
  C   2.72575343765343      2.53899822207437     -0.09159323277717
  C   3.93418711987486      3.52019555989776     -0.15641267400590
  C   3.72348531517111      4.64783987374387     -1.16887302567135
  C   4.91025248240124      5.59249718453653     -1.28945977563557
  C   4.69956910533237      6.66592552993019     -2.36397107291937
  C   3.56451036435145      7.54088011797017     -2.07661868918646
  C   2.62818059149641      8.24208534797434     -1.81653779658672
  N   5.07004002206255      2.66232370963136     -0.52060946414911
  C   4.75763197196365      1.34356865574859     -0.12915470534569
  N   5.65676289410774      0.38491301015785     -0.06644080719322
  C   5.15588777641602     -0.82459051714625      0.24319375153065
  C   3.81377128783593     -1.08476827312347      0.47342228076371
  C   4.16971407617858      4.12167306199328      1.18113078902480
  N   4.38924613761425      4.62689041826909      2.18763866593133
  H   2.01453628004303      2.80527352299428      0.68772015007780
  H   2.18794826860254      2.54271261683038     -1.04335078421497
  H   2.82640408184309      5.20803902960407     -0.89302108296871
  H   3.53349916687537      4.16260860013061     -2.12919388988763
  H   5.80228837946621      5.01983132216118     -1.55422017821748
  H   5.09869799273817      6.07688547752937     -0.32819745374347
  H   4.53830563547303      6.18724605276070     -3.33365853490862
  H   5.59917552633768      7.27805986892042     -2.45743898297024
  H   1.79356743054743      8.85703189854426     -1.58084092691748
  H   5.98389464914000      2.98036641841110     -0.22700436212593
  H   5.88410418285044     -1.62821626807231      0.30665455795515
  H   3.49428001202921     -2.09625603041755      0.69342386748778
