32
Coordinates from ORCA-job 4741optt
  Br  0.58113644643152      0.07450841826246     -0.40334090316802
  C   3.10760118614221     -0.00325100187508      0.28686695754346
  C   3.77462952649641     -1.18784187687805      0.35085978174848
  C   3.03688471707948     -2.48477674362203      0.50205353467452
  C   3.22455571652871     -3.45745449434572     -0.67003781223740
  C   2.10995406896657     -4.50687619494284     -0.65326791328781
  C   0.81085377655435     -3.97035845172651     -1.27637823006060
  C   0.88926152301159     -3.94414978681661     -2.73502775992839
  C   0.98593786447662     -3.94301081282766     -3.93017893398901
  C   4.58465171574243     -4.14506557431847     -0.62842814824097
  O   5.70079481157956     -3.29876085902526     -0.80723947231868
  C   5.98569756527261     -2.41006026426826      0.25571132302066
  C   5.19179817008553     -1.12645903481821      0.20703568169733
  C   5.83908952717361      0.06078089309107      0.03265152214518
  C   5.12719902349080      1.31619765673777     -0.02468909928594
  N   5.59316129737951      2.51163501899572     -0.18033177792857
  N   3.74964101254598      1.16044835261221      0.10504554599286
  H   1.98051071149792     -2.23440755670617      0.60754935351136
  H   3.33346699909020     -3.01013774706372      1.42216503768317
  H   3.16219336261344     -2.89356537586273     -1.60676409984909
  H   1.91257583772021     -4.80150919708574      0.38217697355116
  H   2.41118835912728     -5.40920369149219     -1.19346883420833
  H   0.60813791442480     -2.95432891455402     -0.91908868247579
  H   -0.03858923696912     -4.59227621458537     -0.98524275035834
  H   1.06776108301134     -3.91034831382452     -4.98907247998801
  H   4.65139434094440     -4.87703030368902     -1.43615165667357
  H   4.68391275724560     -4.68575863002749      0.32762753488128
  H   7.05033599391508     -2.18276280644170      0.18409403603275
  H   5.80861965035723     -2.91785868616117      1.21485927281316
  H   6.91537958489249      0.09226727008603     -0.08782653841823
  H   6.60391221295342      2.47112016934709     -0.26748010689774
  H   3.20235248021799      2.00829475382636      0.02831864401923
