29
Coordinates from ORCA-job 4742optt
  Br  2.33528630210593     -0.74523433928235     -1.85840287000519
  C   2.66652292447712      0.24232521279579     -0.20505557794905
  C   2.96764865902411      1.56228056924761     -0.26151221715862
  C   3.17326587882520      2.30733893497601     -1.55416700455100
  C   1.83442785208578      2.74187630705188     -2.18741421836528
  C   1.02422472185180      3.63390830509216     -1.29884835818462
  C   -0.08161335649937      3.26321614652851     -0.66404736107160
  C   -0.86165230469852      4.14787592438511      0.26155484775641
  C   -0.91768125553787      3.63844985034714      1.70714679053666
  C   0.45876767818334      3.39578356489211      2.30945195253395
  O   0.81766921121231      2.03584011579814      2.12059595026665
  C   2.17656496611158      1.78879720283280      2.08751644089334
  C   2.66013772656087      0.49406599062656      2.44448795240853
  S   2.36123715679315     -0.71243953973512      1.20855264235141
  C   2.90361088114788      2.43378531945184      0.95537924654041
  O   3.36017689211047      3.57384282634716      0.93734640878937
  H   3.71417554099840      1.68973760932783     -2.27183639163949
  H   3.77524266368030      3.18976335327780     -1.33489490857388
  H   1.25455123657585      1.84966601911422     -2.43002107202055
  H   2.04998116378140      3.25742139498125     -3.12947795348646
  H   1.41512321199623      4.63567032155024     -1.12811284924910
  H   -0.43985321615290      2.24192547223861     -0.78402409278774
  H   -1.88607215300799      4.26032429271755     -0.11088461409744
  H   -0.40991398017101      5.14432441133073      0.25609907069074
  H   -1.45947878138037      4.37068318873962      2.31240208593267
  H   -1.47582226044217      2.70031852270403      1.76143089286883
  H   1.20212131914560      4.05320373409582      1.84865677335668
  H   0.45723856344700      3.59726623063641      3.38733155749307
  H   3.71611275777585      0.48898305793047      2.71174687672127
