29
Coordinates from ORCA-job 4744opt
  Br  1.69476881138042     -1.16157175553165     -1.84676186080334
  C   3.10117450542738     -1.22873965685287     -0.57047928328806
  C   2.97533772526447     -1.78821830487827      0.64317534130191
  C   1.72167037895205     -2.42856593396589      1.17681324061181
  C   1.73170200967740     -3.97256725386378      1.12627738294092
  C   2.20067025787586     -4.57226662072240     -0.21161995277123
  C   3.70255786278552     -4.87546250552889     -0.20606956341573
  C   4.39230196784983     -4.93761441712744     -1.57220794024151
  C   5.88085917676719     -4.52385886964356     -1.49678132693768
  C   6.02338858687587     -3.02641512678679     -1.77696657952580
  O   6.41554127781791     -2.65898258039214     -2.87642281760134
  C   5.57844758642448     -2.12313393653625     -0.72371814512332
  N   5.63862351137916     -2.45475327672334      0.57239414747921
  S   4.41063965378767     -1.96328855863852      1.63214909093626
  S   4.70097355090753     -0.66139672578080     -1.14592876954516
  O   5.09079137464860      0.42027419696784     -0.27695837915277
  O   4.60146191518353     -0.42185113779873     -2.55690557439417
  H   0.87109827951286     -2.05087273747672      0.60855426513917
  H   1.58229370038661     -2.11548783317056      2.21578431242465
  H   0.71676542388951     -4.30200405648902      1.36264927818951
  H   2.37797035275928     -4.34551013989978      1.92550902434086
  H   1.97454509556725     -3.87203924056691     -1.01912491761167
  H   1.63312088426195     -5.48138643406714     -0.42894298118785
  H   4.20567805926882     -4.11460677963811      0.37884670690818
  H   3.87797070326744     -5.81160540581710      0.33619984468957
  H   3.88370868618932     -4.26603955705448     -2.27188126958319
  H   4.30949142025194     -5.94221288291131     -1.99637735387492
  H   6.46409341444798     -5.02946457240065     -2.26582882221488
  H   6.28435382719204     -4.77735789670462     -0.51437709768942
