25
Coordinates from ORCA-job 4748optt
  Br  1.04528899755574      0.32450498372804     -0.36321900559174
  C   2.94372383743013      0.20884879772286     -0.24902467037251
  C   3.58325249614447     -1.00595729622325     -0.35790171207948
  C   2.98572187584420     -2.35744451335652     -0.64045235362425
  C   4.11704096007841     -3.31489396940649     -0.21054833485689
  C   4.05298744547564     -4.64895893432885     -0.79485266103638
  C   3.99535745995880     -5.74851271597799     -1.26940578306549
  C   5.42271851042347     -2.51495887122936     -0.48903239274510
  C   5.91345920298590     -2.72002598725360     -1.86719599858662
  N   6.30239229895058     -2.84934911244012     -2.93998029909431
  C   4.96803225816544     -1.10015674456510     -0.24500239936225
  C   5.77359547914642      0.04927666436253     -0.02589025792702
  C   5.11222749205035      1.25635281140906      0.11938362239229
  C   3.69565599782429      1.40403865334763      0.02461963421287
  C   3.27308162398299      2.72830606753765      0.22481805516459
  C   4.29670702076657      3.61751837349213      0.47282656714814
  S   5.83888768339038      2.80490258810201      0.46046069467288
  H   2.76703686080072     -2.47618914736794     -1.70621528577638
  H   2.06425998606124     -2.54889235421892     -0.09026036888283
  H   4.06996167010923     -3.41494651773240      0.87648255234572
  H   3.94982495492002     -6.71630888147772     -1.70589128741473
  H   6.22561293113282     -2.84363986925225      0.17956680150594
  H   6.85162642046967     -0.01744913269833      0.04365158717190
  H   2.23266942160480      3.02157483815522      0.18892115844709
  H   4.24187711472765      4.67636026967171      0.65714213735459
