28
Coordinates from ORCA-job 4754optt
  Br  0.93765903596761     -0.09721917876479      0.22479570277332
  C   2.83691532967449     -0.09636740074082      0.11925247958112
  C   3.55054423754283     -1.32220372985447      0.12052736227208
  C   3.19497639982511     -2.68769036264302      0.13215706385688
  C   4.37599448858292     -3.43405133364676      0.10830335257844
  C   5.49267501825615     -2.55439023400641      0.08848600086067
  C   6.92659334871805     -2.96324145397056      0.07647141298571
  C   7.56326451198048     -2.99682907158150     -1.33477008161959
  C   7.78501612427814     -1.65102587710786     -1.85973932222577
  N   7.98983698498664     -0.58066148877517     -2.22032046239127
  C   4.97559639476647     -1.26036921394252      0.08849161770748
  N   5.64499701121636     -0.03058450695128      0.11610077597256
  C   4.89797135591072      1.13880718846871     -0.01393485171520
  N   5.64701805204652      2.32278325679263     -0.17296578077737
  C   5.87363505473321      3.24040803715877      0.82121398596918
  N   5.41610986060984      3.26713274177095      2.00451154125432
  C   3.52176231108924      1.11293707541861      0.02391967368289
  H   2.18537842132144     -3.06917835378152      0.15719919073645
  H   4.44671214057430     -4.51461394469250      0.12307769851952
  H   7.01804490480854     -3.97394073672802      0.48232243221709
  H   7.53943404453553     -2.31184575937057      0.70916205459056
  H   6.89797526554782     -3.52932275829686     -2.01530505005271
  H   8.53263922227259     -3.50328864065470     -1.32782944600725
  H   6.58093087277318      0.00583453084542     -0.26093642519043
  H   6.16022855053827      2.45026891286641     -1.03332465845241
  H   6.52916741739902      4.04924774808184      0.49312410241961
  H   4.81753673048420      2.45413018630687      2.16497603709602
  H   2.99338690956015      2.05527436779912     -0.02896640664192
