26
Coordinates from ORCA-job 4755optt
  Br  1.17263704814761      0.18320996660922      0.00050926930564
  C   3.07195514905791      0.12003382450984     -0.12349064412522
  C   3.69425374831005     -1.14882549140665     -0.11930394718516
  C   3.19982412987070     -2.47384209333714     -0.09342565417093
  C   4.31879586984860     -3.29643478083360     -0.08351011251900
  C   4.35249041808574     -4.79182237660050     -0.06242605498410
  C   5.17001980513778     -5.31212490956609      1.13172546025797
  C   5.25372125319311     -6.76969074070236      1.17353285296368
  C   5.29948530523885     -7.96912170072871      1.18276754585118
  N   5.48566297755249     -2.58789058981643     -0.09310176792120
  C   5.10517575116801     -1.31228581576194     -0.11786105793440
  S   6.24705104634921      0.00220821195294     -0.11430911215347
  C   5.17725668559311      1.35303441988161     -0.28186874147338
  C   3.79802239479787      1.31003670387527     -0.22122740010035
  N   3.10053579175574      2.54332958606469     -0.29515425224553
  C   3.43944442779250      3.67398545888674      0.36031707301630
  O   2.83110668126407      4.72264919626112      0.28760070721385
  H   2.16397802662218     -2.77724247081550     -0.09187912423302
  H   4.80480604617796     -5.18160546515032     -0.97936839036239
  H   3.33566595404945     -5.18514688291841     -0.00892664944337
  H   4.72437068693907     -4.94782812951892      2.06023839937795
  H   6.17121388163435     -4.88170834646303      1.07297833558976
  H   5.34459673732810     -9.03070682418319      1.19435081397341
  H   5.67632518029857      2.28809166594466     -0.48794291911118
  H   2.20647857203062      2.55339121165036     -0.76676951143777
  H   4.33912643175628      3.55030637216639      0.98154488185074
