23
Coordinates from ORCA-job 4756optt
  Br  2.25227597259424     -1.28928870125443      2.17634027441270
  C   2.48312797140819     -0.29698082603014      0.56060054710429
  C   2.29942038215674      1.08283872679888      0.65124841259073
  C   1.68136854372910      1.88051839758911      1.75020992596050
  C   0.37196783238990      2.17006652050388      1.58445210284200
  C   0.12609182932111      3.57536934659974      1.29894410987071
  C   -0.39661032226322      3.86136081119479      0.08482428631413
  C   0.41669431628329      4.65848164506015     -0.85678111849554
  C   1.69035583560360      4.23176851811209     -1.08986839320277
  N   2.26428418062403      3.21837206149077     -0.37691474076030
  C   2.40093056707955      1.94511687112028     -0.49893920592467
  S   2.58822645858824      1.16632851721554     -2.09420310770714
  N   2.88740935364656     -0.44408460649676     -1.83581518711328
  C   2.79991996118720     -0.99159892867055     -0.61501915384980
  C   3.06776519102715     -2.40161488401326     -0.58544098470056
  C   3.29597148546138     -3.58164689548034     -0.59702196548833
  H   2.31419086223017      2.64378763761332      2.19541835584695
  H   -0.25189275272783      1.45349445384113      1.05729767058779
  H   0.85949290564445      4.26725401564294      1.70172912312202
  H   -1.11585220109314      3.16534459336656     -0.34680855987788
  H   0.00924759339146      5.44104183210612     -1.48776723610481
  H   2.29293910860034      4.76896547367680     -1.82661955083467
  H   3.49467492511745     -4.62489457998667     -0.59686560459209
