31
Coordinates from ORCA-job 4757optt
  Br  1.17340098007861     -0.00520200018015     -0.58422853495509
  C   3.09046995141292      0.00254480170531     -0.22102424627970
  C   3.72133526659880     -1.20784613285088     -0.09364947400690
  C   3.03661230209234     -2.55073199077029     -0.00094727758579
  C   2.47365198429309     -2.79036604446002      1.40928801360697
  C   1.63375021752929     -4.05620217127888      1.50399879829171
  C   1.02159412238733     -4.22247285045863      2.89918038526021
  C   0.17758895742702     -5.40911975555742      3.01706954522512
  C   -0.51491975225775     -6.38615258307857      3.08426270182612
  N   3.88926323843248     -3.68013900072414     -0.40366710847016
  C   5.21715143075528     -3.59945168344099      0.19980641185945
  C   5.91880317793365     -2.29225488980507     -0.11272613017810
  N   5.09001841675687     -1.16365899970541      0.26022941355496
  C   5.76183635284508      0.08938239668681      0.36866255884620
  O   6.98444149168217      0.08675320765459      0.58355213432782
  C   4.94380345700108      1.22708408798015      0.20702689771898
  N   3.61789453845481      1.19584965511361     -0.09914855019364
  H   2.18652439300285     -2.54516170633390     -0.68379031659235
  H   1.86173798728367     -1.92214995078854      1.66668934804636
  H   3.29221292466362     -2.81973502678041      2.13465142497881
  H   2.24027896081543     -4.92875760734686      1.25941558315536
  H   0.82845670927748     -4.01409109330078      0.76536069354640
  H   0.42547143575645     -3.33996230464865      3.14630554579935
  H   1.81842812171761     -4.27953444293655      3.64569135085123
  H   -1.12821070598401     -7.25212207630543      3.14213721201412
  H   4.00186746183030     -3.63540581086199     -1.41202112578181
  H   5.81655772041559     -4.43887137823804     -0.15926885643804
  H   5.11376459527654     -3.71416737179863      1.28145787349311
  H   6.13356583367686     -2.25501653622870     -1.19540423945959
  H   6.86403068015475     -2.19485225756784      0.41684118706067
  H   5.41361774868974      2.19481151630637      0.31724878047819
