28
Coordinates from ORCA-job 4760optt
  Br  1.10671076237489      0.07890280393080     -0.33554672468138
  C   2.98832527847550     -0.04141959846465      0.33283962435084
  C   3.71295297596526     -1.20197254810204      0.05125668031470
  C   2.96758609573695     -2.51544758163524     -0.05661587532167
  C   2.27264359882362     -2.85915435987436      1.28097804131257
  C   1.39737440523483     -4.02369277058835      1.18636901289850
  C   0.68727609492917     -4.98517288669798      1.07940824357405
  C   3.89444390050878     -3.63080704949491     -0.51666486062430
  C   5.20687807192528     -3.53198322788919      0.22967729011746
  N   5.88691032175694     -2.29023642826079     -0.10441759516989
  C   7.27221314963878     -2.36848928969651     -0.23341272304690
  N   8.16672474357005     -1.48733411148100     -0.39279094009669
  C   5.11467999395237     -1.10473614716978     -0.12617785288114
  N   5.81251712201860      0.00751211575035     -0.33627069968519
  C   5.30011671322454      1.25251472491875     -0.25979234862608
  N   5.86270902587311      2.33838399192896     -0.64245906686917
  S   3.72184628891418      1.49764491974526      0.57827339930434
  H   2.17075880505261     -2.39916966776352     -0.79500277303580
  H   1.68731264236818     -1.99383151431128      1.59571415263790
  H   3.02351658671441     -3.03073611952199      2.05655082338111
  H   0.04759099160194     -5.82876048073034      0.98865449907348
  H   4.09529854698756     -3.52832153775606     -1.58554839020924
  H   3.42888238594016     -4.60491750794928     -0.35172124798297
  H   5.86465310448566     -4.35945665633905     -0.03306563551948
  H   5.02893682282072     -3.58594966151778      1.31119159395785
  H   7.58843175378930     -3.41278555613693     -0.18411090728466
  H   7.72739726703189     -0.56720474685126     -0.41903427925511
  H   6.77731255028459      2.09762089195822     -1.02728144063313
