26
Coordinates from ORCA-job 4763optt
  Br  1.25247238863461     -0.20387123934309     -0.41549782384940
  C   3.13995786624568     -0.13172075362558     -0.13564471358601
  C   3.70134994237601      1.09461616366971      0.10969388336969
  C   3.05948604624717      2.46190904705147      0.24854986738254
  C   2.35921272874039      2.61036420096471      1.52620677696621
  C   1.78841636616652      2.75076526069586      2.57081898533547
  C   4.30728391220504      3.38404172487844      0.12268329613037
  C   4.23265763522865      4.71004994414870      0.87611794924738
  C   3.23037112223115      5.62455682176979      0.33063708346273
  N   2.46089137902288      6.35355019480086     -0.10708891093908
  N   5.41235812143497      2.58173854929521      0.65058913547650
  C   5.06881593268574      1.22400404945323      0.34744134316725
  C   5.88959554297218      0.09248562270108      0.34710935436970
  C   5.32770735811069     -1.13380631093810      0.08418745520330
  C   3.92960426783230     -1.32226799281303     -0.18089035715212
  C   3.44673789455247     -2.63307615970739     -0.45374371825886
  O   4.16516905413408     -3.66159530264892     -0.48369859471131
  H   2.34839277731637      2.67130516518083     -0.55300843195338
  H   1.27209673187801      2.84474798918530      3.49487493153075
  H   4.43702370326984      3.58168888773248     -0.94892881867918
  H   5.20334031383065      5.20756049149634      0.82812582069009
  H   4.00373271173920      4.51401975236961      1.92408939204856
  H   6.29667660247000      2.85631333252715      0.23789184643731
  H   6.95154589731941      0.17799435581494      0.55114155047437
  H   5.93250695046262     -2.03154113269134      0.06585777169640
  H   2.36659675289328     -2.72083266196830     -0.64651507385927
