25
Coordinates from ORCA-job 4766optt
  Br  1.57662047346171     -0.19744620544823      2.26621940426064
  C   3.04967578942516     -0.06081416160893      1.01476453588988
  C   3.72081481819775     -1.20851073650550      0.62578985049498
  C   3.17933041820124     -2.60190733231234      0.51475814351478
  C   2.02227571721115     -2.70522269283116     -0.47456428097253
  C   1.60196022938466     -4.17923415424015     -0.66273781924042
  C   1.00774648834799     -4.74834801094956      0.55007546326159
  C   0.53349869675693     -5.18391224594113      1.55818252840130
  C   0.68290953829360     -4.32642008775709     -1.79928782956719
  N   -0.01705049735405     -4.42419310171700     -2.70136888457237
  O   4.27072772259167     -3.39557888791361      0.04115528374410
  C   5.37839468872189     -2.56976047638234     -0.31067023209176
  C   5.02475020902920     -1.18841639183122      0.16093631174464
  N   5.91105950269439     -0.19752658573524      0.10010396891708
  C   5.57460716802053      1.04384011775390      0.51291937626308
  N   6.34363404674575      2.06475635357317      0.59929399398396
  S   3.85877372680358      1.47925094086114      0.97203931845463
  H   2.85775720947221     -3.00516203916394      1.48244943931693
  H   2.34949114258692     -2.30963310946440     -1.43772033417769
  H   1.17492287624703     -2.11466159296014     -0.12380322581250
  H   2.50987120943555     -4.74113192773341     -0.90389885821362
  H   0.11905925102970     -5.56514813698646      2.45990801443811
  H   5.54230774542112     -2.59851500004085     -1.39487390754335
  H   6.28040307406017     -2.94552275256082      0.18006356279987
  H   7.27245875521407      1.77021821789537      0.29726617670587
