28
Coordinates from ORCA-job 4769optt
  Br  1.18334554216080     -0.21440919864924      0.46975651246359
  C   3.12303507973480     -0.14650253048710      0.29712824532513
  C   3.72732660638423      1.06971210974193      0.06688257162494
  C   3.00239712158200      2.37842930203340     -0.06249628345421
  C   3.85191547740200      3.52695981981964      0.46857739720022
  C   5.19290319379569      3.61037461263752     -0.27173997324898
  C   6.00751949513236      4.68798647270873      0.28634686202987
  C   6.61710308848327      5.59386699949516      0.78373797948640
  C   5.94352959182495      2.26230315684303     -0.25741445881969
  O   7.19096975598048      2.26728505483760     -0.39579419118631
  C   5.16359176099964      1.08955586176669     -0.08916190821782
  C   5.76893071107055     -0.19405810414200     -0.02744550861167
  N   7.10429898010778     -0.52070944946662     -0.25994671773924
  C   7.32292111970769     -1.82870435392683      0.35743209386181
  C   5.94547406448278     -2.50971723626482      0.25130021910083
  C   5.02614760042518     -1.31384093216576      0.25550051030992
  N   3.68980016572871     -1.34016326722457      0.41184559186171
  H   2.05114845917966      2.34440220242915      0.46593397090129
  H   2.76983421377593      2.56847523205836     -1.11888968394586
  H   4.05610756246183      3.36885044041421      1.53067024890416
  H   3.32005349417210      4.47611800025701      0.37432205396043
  H   4.99702705984431      3.85861562590711     -1.32335018515437
  H   7.18593784437241      6.37735892787242      1.22069903869038
  H   7.75151284083019      0.24007306431429     -0.09611494242220
  H   7.59276394303584     -1.72435696238461      1.41792976974563
  H   8.11575645606371     -2.37835128307942     -0.15082109935732
  H   5.75045767762381     -3.20824788921708      1.06466242045593
  H   5.85019109363708     -3.05630567612825     -0.69455053376456
