28
Coordinates from ORCA-job 4772optt
  Br  0.90614804871052     -0.14938092378694      0.08933218945128
  C   2.82744463506106     -0.09684597938843     -0.04189231509152
  C   3.50827944500266      1.08290691581604     -0.19130474482573
  C   2.82057970714627      2.41487664794206     -0.29465512208312
  C   3.69570664268086      3.53372841190097      0.24432198562266
  C   5.02294338167431      3.56983541003894     -0.51366685305470
  C   5.88124947850858      4.62303969415869      0.02464422385087
  C   6.52239974404034      5.51755532996468      0.50244304938098
  C   5.74550483947551      2.19866784455673     -0.52215513490210
  O   6.96308853675923      2.18972211015122     -0.74714624724233
  C   4.94719447378124      1.02362370342736     -0.30659342256297
  N   5.61763866227944     -0.18336190864729     -0.25080527716379
  C   4.88330556925127     -1.25683895594728     -0.11552653166921
  C   3.49646385594090     -1.32582147453080     -0.02004860543284
  C   3.06280958438771     -2.74588491191464      0.18870525276227
  N   4.25881685471251     -3.55270077696310     -0.15454935918305
  C   5.42517262761780     -2.66461816594019      0.02399506259865
  H   1.86962194172227      2.38895865636274      0.23696856541925
  H   2.58547196768500      2.61983468558199     -1.34726246991769
  H   3.90360027458269      3.36129940409110      1.30326226032369
  H   3.18790381771517      4.49718692635100      0.15954208380894
  H   4.81790883026275      3.82267888760089     -1.56268113705115
  H   7.12230584141409      6.28815081381443      0.92020838409535
  H   2.21215634466503     -3.04864655836736     -0.42672505521380
  H   2.78291702780064     -2.93974666316840      1.23272356909254
  H   4.19504276863931     -3.75796006176578     -1.14452582505994
  H   6.21017749607680     -2.88783103717654     -0.69825599529712
  H   5.84714760240594     -2.79742802416210      1.02564746934458
