32
Coordinates from ORCA-job 4783optt
  Br  1.37740940485117     -0.40159487155653     -1.33945774957590
  C   3.19148990408873     -0.39399949455847     -0.68731912754989
  C   3.66040138946760     -1.45231612454064      0.05155962293681
  C   2.86459148748829     -2.59640624634209      0.58958349200750
  C   3.52411851914412     -3.93248805039109      0.24602996382209
  C   4.97051456816238     -3.89974698803386      0.72003893887049
  C   5.77112521482064     -2.68353670928507      0.24518382805032
  C   6.33033964157945     -2.78757982813609     -1.18933699008094
  C   5.37724929380364     -2.42184476142387     -2.31347207818592
  O   6.08649082008365     -2.51339481542468     -3.58041521750147
  C   6.20604959406879     -3.71039647051674     -4.11661550283971
  O   5.77406717427095     -4.74460156560973     -3.68479657678257
  N   5.02915035125854     -1.43481259524241      0.46773415147777
  C   5.81204130462651     -0.22935939597170      0.34868018179170
  N   6.99101120952242     -0.12865038150003      0.89984778888081
  C   5.25065884368427      0.81138071439908     -0.42676554974327
  C   3.97176456252640      0.71817506778813     -0.99510132407173
  H   1.84620899446988     -2.55846560806260      0.20966088581488
  H   2.81365769300793     -2.51975214017869      1.68775221451822
  H   3.46901222287314     -4.10634627048285     -0.83077285859361
  H   2.99654162715935     -4.75886211727298      0.73165979718510
  H   5.50599674908159     -4.80591678442811      0.42622059448498
  H   4.96017228553449     -3.86716322710693      1.81482673452585
  H   6.65245080389021     -2.65753166842154      0.88543594645634
  H   6.71056012602308     -3.80004073030653     -1.35085695819409
  H   7.17448748217011     -2.09596786977146     -1.25671971667564
  H   5.06408865308089     -1.38240516174275     -2.24742799868093
  H   4.50388231596402     -3.06637331023670     -2.37062173460951
  H   6.77199619638920     -3.63987667594707     -5.05637340758722
  H   7.18963636972860     -0.93985932799924      1.47600638163250
  H   5.84872979738248      1.70492804870634     -0.53669381550084
  H   3.58110539979727      1.49780535959699     -1.63347391628213
