28
Coordinates from ORCA-job 4785optt
  Br  2.55659774058026      0.32764706384628     -3.33842882558425
  C   2.86145412006004      0.53438716488525     -1.46486264238970
  C   3.44281535576016      1.71396359270586     -0.94084827725868
  C   3.47694787712230      3.00939846803087     -1.70527857518506
  C   2.07292164633785      3.66801389014623     -1.67574180912604
  C   1.42033738939363      3.75646256833151     -0.27816532759957
  C   0.52786698978447      2.54171148514889      0.06495599191152
  C   0.55706652539169      2.11259940730315      1.55009023913623
  C   0.21622734385196      0.65013906671492      1.83494972452849
  O   -0.83815132701494      0.31162468518225      2.29448284907574
  O   1.15838672481154     -0.31620305402618      1.61711338071665
  C   2.21198997981550      0.00997984295095      0.75633609228268
  C   2.07248946728540     -0.23678632552730     -0.57327625614181
  C   3.28580487876171      0.83652491893580      1.20585848620911
  N   3.72366969680808      1.81996358119396      0.33594196294136
  C   3.63392048770446      0.92825346435456      2.56398480833851
  N   3.90710231075379      0.99671249382400      3.68941820669550
  H   3.78100425221609      2.87156876130920     -2.74390954840876
  H   4.19398868683596      3.66669319952008     -1.21249512348399
  H   1.41000684558535      3.11394105917001     -2.34780745368508
  H   2.17232002759656      4.67178107794704     -2.09749875974911
  H   0.82240151544454      4.66977574160801     -0.22230574667984
  H   2.21252776463460      3.84959310461117      0.46763165275530
  H   -0.50609156471890      2.75912330626089     -0.21496395659202
  H   0.83268343409383      1.71219921089873     -0.56142558921490
  H   -0.17594966866913      2.68004253204641      2.12191801701758
  H   1.54137724454517      2.32058179430053      1.96586293521428
  H   1.23528425522798     -0.82469210167309     -0.93153645572415
