30
Coordinates from ORCA-job 4786opt
  Br  4.45240716302785     -0.31746095244411     -3.03020276707238
  C   3.79951085052078      0.13124997017529     -1.30026335578303
  C   2.54306481571646      0.61141941808911     -1.06923526303491
  C   1.56131124142236      0.97681478370188     -2.16427693639108
  C   0.45291964873242      1.88402833284451     -1.63141281846925
  C   0.96479660737487      3.26930115428018     -1.21816682790952
  C   0.06600261169867      3.98808361994459     -0.19245953384208
  C   0.70045328565512      4.12522289487259      1.19721213537116
  C   0.84901803250091      2.78869544983875      1.90017689026832
  O   -0.08982202258564      2.06240627544720      2.10868634599351
  O   2.10256382735002      2.56882893423674      2.29733491137732
  C   2.50395291977154      1.18257273522205      2.52145185381283
  C   2.99543021948092      0.64025030324183      1.22525822684511
  N   2.13702470000442      0.81947163282119      0.19052642345972
  C   4.31562120050448      0.15487622262829      1.08532858750020
  O   5.19157657808618      0.02319672739094      1.95195724545457
  N   4.62760877015096     -0.24236287293112     -0.24288645127554
  H   1.12519052902390      0.06586626974779     -2.58800220020322
  H   2.09582095159437      1.46733522267781     -2.98372446600297
  H   0.00667019658025      1.40265775632469     -0.76053198887083
  H   -0.32919026920344      1.99357542860997     -2.38960941538829
  H   1.07718160628201      3.88875814065671     -2.11318038683102
  H   1.96361247335452      3.15451899637168     -0.79154973957404
  H   -0.87970250665696      3.45091599312643     -0.08423289607969
  H   -0.18177462163161      4.99345104435719     -0.54141738423195
  H   1.67518729508654      4.60697572889656      1.12608586844478
  H   0.05585507381115      4.74061661112918      1.83059886913463
  H   1.63079893345247      0.65318419702846      2.90483879816612
  H   3.29913231819234      1.20809980288395      3.26155027562867
  H   5.61677757070203     -0.34654982117039     -0.41085400049711
