26
Coordinates from ORCA-job 4793optt
  Br  1.20886689825305      0.77995967703758      0.10660283818827
  C   3.06097233716713      0.46083365636768     -0.08127901090815
  C   3.95154472498381      1.52052317884263     -0.25355834834400
  C   3.96558544847285      3.01506443321106     -0.03348241414870
  C   5.45422917599875      3.26139570353002      0.36991157451086
  C   5.99691457636093      4.65419904169518      0.04310103000402
  C   5.87452653901224      5.02127362588553     -1.36522679141943
  C   5.75969595492127      5.32444466121803     -2.51865718264647
  N   6.19230046431684      2.19058227387692     -0.30848024290712
  C   7.39670616784701      1.55650011124298      0.24656479747243
  C   7.12158886226744      0.01316261542634      0.23415177069931
  O   7.96272975639312     -0.80535420817479      0.60720479577590
  C   5.77373885557375     -0.10111050944042     -0.18488975748355
  O   4.89210250609173     -1.15874488189837     -0.14617075060429
  C   3.51366553828191     -0.91133595760174     -0.08748199665154
  N   2.73489944028686     -1.92463833844280     -0.03653315845320
  C   5.26585291329731      1.15515350936013     -0.38116843196996
  H   3.27843576080243      3.33746082191589      0.75015294517918
  H   3.72545831649437      3.57464767781995     -0.94362665357065
  H   5.54102514990275      3.12427245922115      1.45978443952127
  H   7.05143818410451      4.69493513169706      0.32952608351481
  H   5.47086436699355      5.39512674143748      0.65136138727840
  H   5.66066776296126      5.57437611615538     -3.54688738492139
  H   7.55099654063262      1.85447806956480      1.29313379616279
  H   8.29679351219016      1.80331355239589     -0.31840088204470
  H   3.30140024639226     -2.76951916234358     -0.02065245223412
