24
Coordinates from ORCA-job 4794optt
  Br  1.08658980228725      0.07912475289399      0.10134861216822
  C   2.97235064331068     -0.03893917467999      0.09941335654136
  C   3.65538623304897     -1.23384196892966      0.09888668194257
  C   3.02189871182799     -2.50911679971276      0.09893954643576
  C   3.76003078574687     -3.68417056078029      0.09845025273713
  C   5.14506654627457     -3.65845019862946      0.09796251716140
  C   5.82709338249795     -2.42623722438638      0.09791517569626
  C   7.24389943050453     -2.45282710739427      0.09770098962271
  N   8.39968736907263     -2.48625852449316      0.09804480277813
  C   5.12436716555422     -1.18040794616457      0.09815934557532
  C   5.70640901169729      0.07416495249378      0.09787187329612
  N   7.03377978711459      0.47348593211504      0.09699229558933
  C   7.15050430552885      1.86664721495843      0.09691029610338
  N   8.24610774084941      2.55478808312035      0.09639246290494
  C   5.79749295607132      2.36973318075074      0.09755825119484
  C   4.95562138264613      1.28567827026656      0.09820933286246
  N   3.59320427550987      1.19496660460629      0.09905920044228
  H   1.94197677736801     -2.55137146131612      0.09930798350908
  H   3.24276542515482     -4.63569246589202      0.09845790729138
  H   5.72063853891008     -4.57441700392966      0.09770466643510
  H   7.82033165288769     -0.15358670166483      0.09708144767749
  H   9.05183482766036      1.93348510007028      0.09603804886591
  H   5.54489611972586      3.41623829888218      0.09759355653284
  H   3.03006712874999      2.02700474781553      0.09900139663597
