32
Coordinates from ORCA-job 4798opt
  Br  0.76703669007427      0.55215686060106     -0.50076080777566
  C   3.28707637533657      0.17958283955915     -1.00479267012827
  C   3.78610288774482     -1.05240902035922     -0.71389057805490
  C   2.85296336999226     -2.23628540549760     -0.83546675390922
  C   2.12292995487827     -2.61829760760580      0.46142023060028
  C   2.86674086697880     -3.50400232442205      1.45477128081509
  C   4.30917783807575     -3.06830740538803      1.73555417880934
  C   5.26796414571657     -3.41148252140342      0.58112719444092
  N   5.85190221636570     -2.27905438454526     -0.12864342975130
  C   5.17670235355220     -1.08591064496710     -0.35767352599348
  C   5.89108175918201      0.08289075219555     -0.28729012142303
  C   5.30889535848983      1.35322410796384     -0.58973072077256
  N   5.82600528749885      2.52071187911309     -0.57656374676014
  O   3.97261843129758      1.30601635171817     -0.95446957147507
  N   2.07349200808200     -3.55752789462358      2.67781378481885
  C   2.21292830098963     -4.53222200248561      3.61140067955472
  N   1.72506373655548     -4.61086826890229      4.78692614054957
  H   3.35358170244013     -3.09721750247471     -1.28464521800535
  H   2.07846913558889     -1.92640270786908     -1.53547722135886
  H   1.18307327209567     -3.11728839024456      0.21326410243930
  H   1.84551097460054     -1.67947566915930      0.95060021138452
  H   2.90500272458036     -4.52768910626874      1.06143303981852
  H   4.63990897903474     -3.57388840638373      2.64577327190332
  H   4.33451238046197     -1.99406036431541      1.93892056434336
  H   4.76437141835662     -4.07556709105556     -0.12409665388742
  H   6.11341853944051     -3.98182476044564      0.96693045419110
  H   6.80464096523235     -2.10522879867472      0.15033178908480
  H   6.93456994321936      0.07043628685530      0.00228865421207
  H   6.80157367285624      2.44344814616442     -0.30405664227526
  H   1.58005378619052     -2.71396782625232      2.93292034160952
  H   2.82176323330502     -5.36675416908319      3.25602289619402
  H   1.18186769178636     -3.77673495174356      5.01305884680117
