24
Coordinates from ORCA-job 4799optt
  Br  0.85203527040201     -1.11221323810613     -1.38861745981585
  C   2.60975088339176     -0.57615529999896     -0.90399595574474
  C   2.86672179081822      0.69704350526022     -0.57069059411373
  C   1.94309315803071      1.84558443447006     -0.59433880433490
  C   1.71818821523474      2.47480462894458      0.56428044922978
  C   2.30183463308385      3.81404661996734      0.61960601301792
  C   3.57486460595850      3.82422772629109      0.18043946646903
  C   4.45983648520103      2.68502500686482     -0.27170429331906
  N   5.61075907457014      3.13134527197740     -0.66783008030053
  C   4.17450407554059      1.21905946191693     -0.19362904080858
  C   5.22431685453794      0.30223622487466      0.07125435306943
  N   6.41698470371651      0.67262581300708      0.73897193868220
  C   6.53188537129530      1.55496194222305      1.75971682434950
  O   7.54716206620756      1.71475643661432      2.40823662152361
  C   5.23246742073789     -1.08190323240579     -0.22672862776115
  O   6.18169259774695     -1.84428461707533     -0.02660467782154
  S   3.77996104050340     -1.85748156682930     -0.96734013591391
  H   2.00883151134202      2.45863028461483     -1.49028796829664
  H   1.64717186110792      1.90150474513518      1.48615992093190
  H   1.85990109455871      4.68966219920073      1.08249196868451
  H   4.14683642740124      4.74712594750432      0.20551689323349
  H   6.21120553618347      2.36249529271461     -0.95877711457918
  H   7.16756975912570     -0.00284917322900      0.64865677439833
  H   5.61142556330380      2.11975158606323      1.95921352922009
