32
Coordinates from ORCA-job 4805opt
  Br  1.48414308828904      1.73847527757644      2.97907613493115
  C   2.32211616351710      1.09674531447260      1.37315681724149
  C   3.60229158463288      1.61069560664532      1.02514393978092
  C   3.73247779318202      3.10530407701003      0.81061214993523
  C   2.82302980288992      3.53648287151904     -0.37091788035061
  C   1.37542564410945      3.85584539570008      0.03544416241053
  C   0.30410852534059      3.49837797522048     -0.99662922558806
  C   -0.02295152452725      2.00325693963859     -1.12511256986539
  N   -0.47436868798422      1.36148268718154      0.11401310705748
  C   0.16594300872992      0.11106917416458      0.55505315370426
  C   1.66533306298873      0.25171893027113      0.51485374631130
  N   2.24367736239373     -0.33353736380699     -0.55400274577643
  C   3.58187630081761     -0.12970249377754     -0.75296132435269
  N   4.30528097009799     -0.72802274837170     -1.64306356142737
  N   4.21365844075027      0.83057366205051      0.03131464062210
  C   -1.62121091658715      1.76047563703181      0.68775197178044
  O   -2.36040608523608      2.63847072500568      0.27534783571585
  H   4.77579096038529      3.34852134504163      0.58765234332211
  H   3.45733467155498      3.65219035924517      1.71576122290923
  H   2.83402670904495      2.72188031351154     -1.10292800724503
  H   3.25140640120355      4.40648918646464     -0.87877474996255
  H   1.29966575392864      4.92480080864181      0.25640274518251
  H   1.12234576641896      3.34817974435983      0.96390747338727
  H   0.61503001407775      3.83788389945410     -1.99083609126019
  H   -0.61913388845023      4.02367855316879     -0.75239430992303
  H   0.84626420525535      1.44223630860707     -1.46627271243538
  H   -0.81332962981378      1.89137379155671     -1.87393034305977
  H   -0.10681683385068     -0.70349519574925     -0.11952504984520
  H   -0.20339145951236     -0.10873171048168      1.55671035622886
  H   3.69995902752555     -1.38086561480180     -2.13201631988966
  H   5.16288561769229      1.02956433462591     -0.24228775800886
  H   -1.85046184886490      1.19958220882382      1.60945084846947
