27
Coordinates from ORCA-job 4808optt
  Br  1.21230049236173      0.21328944757730     -0.01162437240446
  C   3.08001294099891     -0.13137827434188     -0.68691888782292
  C   3.66451533558521     -1.35999456805856     -0.35883504137505
  C   2.85785342667085     -2.62905456618253     -0.31640510584623
  C   3.72458674249552     -3.87595455279142     -0.46736179330047
  C   4.97986861494122     -3.80279557702457      0.42151838012140
  C   4.59960071239603     -3.60836270021963      1.90974682827558
  C   3.69470721186124     -4.63870214679180      2.41432277404840
  N   2.98045224216966     -5.44476289959046      2.80811384742057
  C   5.82999200653462     -2.59751285678508     -0.01565595270292
  C   5.03255604439612     -1.31908259287287     -0.11966958905971
  N   5.75280968550197     -0.19876074301529      0.00148551212891
  C   5.12301586895082      0.98971189251176     -0.16474656490457
  N   5.59280224581318      2.15779344815581      0.04479714014823
  O   3.81794887922994      0.99191388053320     -0.67883037399874
  C   5.76128109116454     -5.03551179559548      0.28961902217020
  C   6.39845672107570     -6.04515608958086      0.18125935393540
  H   2.10533888258924     -2.61631606223739     -1.10736007537609
  H   2.28905574584423     -2.68490428613813      0.62057881107730
  H   4.06682180840619     -3.97365337389396     -1.50044352484154
  H   3.15481282144375     -4.77496037521977     -0.22227074869138
  H   4.12172829795187     -2.63363736617338      2.02817997438926
  H   5.50418023574319     -3.61559843769781      2.51940174949098
  H   6.27735677908437     -2.82466148358397     -0.98812931949043
  H   6.65488975142970     -2.43817429486965      0.68143694609018
  H   6.54652562383801      2.03235144761849      0.37293576618084
  H   6.96152979152207     -6.94112507373199      0.08185524433728
