28
Coordinates from ORCA-job 4809optt
  Br  1.01753531086594      0.08769038542143     -0.44773199069008
  C   2.89359622999826     -0.00609838431279     -0.22436133353615
  C   3.57141250458913     -1.18245879101671     -0.00056996081039
  C   2.97218461276464     -2.46736714983139      0.07990010427452
  C   3.74134009775154     -3.59312417256449      0.28896991192420
  C   5.13023917174517     -3.48045152709924      0.41457340231793
  C   5.76076914668353     -2.24168157434197      0.35100819785260
  C   7.25425662916103     -2.17432762945974      0.45507893129025
  N   7.71293177763979     -1.66340789407862      1.75094275193051
  C   9.13774153929350     -1.86053589707442      1.92650903555420
  C   9.58591182844810     -1.48674578092076      3.26756192504229
  C   9.94151448077821     -1.20340993171140      4.37595908434602
  C   5.01137953987064     -1.05219056509611      0.16648292402432
  C   5.57215471986984      0.22567344724671      0.13186121272038
  C   4.81015191637204      1.39836102310969     -0.10424475328361
  N   5.16553201010804      2.63129110284149     -0.16433071383968
  O   3.44330505032110      1.22124652926289     -0.31319280464198
  H   1.89919420750712     -2.55039299677688     -0.02876442012892
  H   3.26897094686761     -4.56624075699644      0.34549706773446
  H   5.73426491122023     -4.37160342578671      0.55012210514273
  H   7.65894998316956     -1.50792058556032     -0.31656785175211
  H   7.66847063363427     -3.17821797288477      0.26605151676606
  H   7.19355594734817     -2.11641990716931      2.49435763457592
  H   9.66337799686840     -1.24099542944160      1.19286270965904
  H   9.45284111757304     -2.90077110534788      1.73463092168213
  H   10.24827588492828     -0.93667952547977      5.35791722933688
  H   6.62071686872895      0.36829307793935      0.34885249138531
  H   6.16842493589379      2.67748543712977     -0.01037532887685
