27
Coordinates from ORCA-job 4815optt
  Br  1.54176213048497     -0.07932441839105      2.17758208019158
  C   2.99509420781330     -0.00294336635472      0.89779549356637
  C   3.66843211040560      1.19354397950804      0.71000223805618
  C   3.36790595524885      2.45750761640633      1.45840114234154
  C   3.32232194004648      3.73302358822108      0.59784704631663
  C   2.47007982439535      3.52245781207765     -0.68648268281453
  C   1.12678498514894      3.03556931109902     -0.39686542201637
  C   0.04130813331416      2.62367563155229     -0.09157356390168
  N   4.59625608980241      4.31127877340655      0.28949502214433
  C   5.48092386476486      3.59877831810336     -0.38652605045272
  N   5.48359521383164      2.20526593560020     -0.63402097769487
  C   4.72618082309517      1.14703249360444     -0.24721369503966
  C   4.99577856691026     -0.10648539511611     -0.85965249075068
  C   4.23256409689483     -1.19533922463786     -0.55031564264632
  N   3.21199364237408     -1.17265836799959      0.32521020893680
  C   6.63388053168677      4.21003329069969     -0.92596986705758
  C   7.63140600333443      4.70723112735082     -1.41008230375460
  H   4.13438092879188      2.62854719125928      2.22234313769162
  H   2.41566378985909      2.34816530823630      1.97133337491323
  H   2.78322725898625      4.47347771822857      1.19692238226286
  H   2.97598697931213      2.81488765247987     -1.34775020340994
  H   2.42201106667792      4.47832362850678     -1.21050441219880
  H   -0.90459228998628      2.22867773484804      0.18827382146045
  H   6.21916991975467      1.95388868357186     -1.27724015202457
  H   5.79990355430680     -0.19141697970287     -1.58146537529597
  H   4.42987580604403     -2.15275636126151     -1.02165068695974
  H   8.49710486670127      5.16055831870346     -1.82489242186356
