25
Coordinates from ORCA-job 4816optt
  Br  3.07188696216694     -2.39504004877670     -1.04155045533025
  C   4.26338039886930     -0.91613799815194     -1.05497974289376
  C   3.83657430101749      0.37254980260191     -0.85029245195512
  C   2.43190180069066      0.64684885061445     -0.59947654827920
  C   1.79270136136806      1.82767038125930     -0.36079404928258
  C   0.28771625403140      1.74242300685687     -0.11915283763778
  C   -0.05935163715246      1.97907504032818      1.28121910114391
  C   -0.33936399064668      2.15683145395149      2.43313180227554
  N   2.22361083831547      3.10788459842009     -0.29570988870342
  C   3.49738354082863      3.43767923398110     -0.46750725259426
  N   4.60139249908945      2.76648054785802     -0.71635730317928
  C   4.80864163330350      1.44958299484255     -0.88675307039052
  C   6.21395374895770      1.12647821958014     -1.14066712086126
  N   7.18899977245914      1.95694257704166     -1.20901610002766
  N   6.51728866696760     -0.21440598608930     -1.32295440248066
  C   5.65091953181069     -1.28350997370559     -1.30368116725663
  N   6.02386142952020     -2.50025126883501     -1.48734560462494
  H   1.79977310366871     -0.22658058949619     -0.59004450988808
  H   -0.10072159172745      0.76969297412119     -0.42199728162901
  H   -0.19185247593543      2.51088145530130     -0.72951984231297
  H   -0.56979847875488      2.32372440998250      3.45668328510278
  H   3.66779514740222      4.51121649533377     -0.38508723810384
  H   6.80271225641734      2.88564955600005     -1.05131066169189
  H   7.49504964279860     -0.39571248373102     -1.49070667999392
  H   7.02954528453376     -2.53797324928883     -1.64312997940519
