23
Coordinates from ORCA-job 4821optt
  Br  3.27482363846061     -0.43062540055999      1.90778244028334
  C   2.54874726597251      0.24554922194323      0.19965390857690
  C   2.30749234551732      1.61512094615577      0.05315573458724
  C   1.60524356065171      2.39863083485996      1.04195024334353
  C   0.54957568432557      2.04657988614710      1.81022874394427
  C   -0.32384158837165      3.22046578835138      1.87069623295193
  C   -1.29562481851135      3.31062249931718      0.92163181078005
  C   -0.61393563644675      4.17047718026243     -0.06306195620224
  N   -0.05684285520384      3.54982234101544     -1.02693902702962
  C   1.09200873502465      4.13887864871546     -1.64061523848881
  N   1.13477468425752      5.33271916605390     -2.10264991782561
  N   2.17085070921330      3.30638348190946     -1.79358561522592
  C   2.53371085386733      2.21985170886992     -1.20815216136558
  O   3.41556631488746      1.48823023148587     -2.04370915866699
  C   3.70733821534101      0.20046760755653     -1.87952298421462
  O   4.41715879973767     -0.38643926069617     -2.63687717483001
  O   3.12328653113220     -0.44428220381168     -0.84622032323320
  H   1.83750219721219      3.45950766227025      0.97393859218600
  H   0.15355899369983      1.03940371391021      1.77955899893836
  H   0.18452116868661      4.14257793496086      2.14617162431444
  H   -1.68817195760760      2.38508318538370      0.51542730701103
  H   -0.31379013191861      5.18070372447226      0.23879027272107
  H   0.22804729007229      5.77427110142686     -1.96565235255557
