27
Coordinates from ORCA-job 4823optt
  Br  1.06690810743825     -0.07118122215104     -0.27569298965146
  C   2.95264176477309     -0.12217873801272     -0.09886021221969
  C   3.64779679475809     -1.29702892242017      0.21690708019777
  C   2.98193437591005     -2.61056581421296      0.51525957724348
  C   3.21099765122019     -3.68673059185144     -0.55300799433255
  C   4.58279061848686     -4.37185996239270     -0.48162516519213
  C   4.75259924515421     -5.41134262109259     -1.59418907467954
  C   3.78897883859310     -6.50424441355574     -1.48651155408704
  N   3.04278291518236     -7.36940049431920     -1.38588536629365
  C   5.77107109200333     -3.41440780076709     -0.52393928773245
  O   6.59738989114588     -3.50068073118823     -1.40335065068541
  C   5.89033158133907     -2.40457048524692      0.59329876124273
  C   5.04424311421853     -1.19275263023935      0.27395701251821
  N   5.76152132290011     -0.10912950748519      0.05898771793394
  O   5.02511501870140      1.04552251395793     -0.28404776598939
  C   3.64651158178417      1.09134661649347     -0.36978507972788
  N   3.10988922625790      2.21179589247396     -0.68498273338058
  H   1.91056918516866     -2.44707636817623      0.61116662981394
  H   3.32232804499673     -3.00260207227172      1.48321666625919
  H   3.08500923423751     -3.23556485981795     -1.54145059625285
  H   2.45377337977968     -4.47104664643510     -0.45255478571547
  H   4.64210925018995     -4.87833056363523      0.49115829620114
  H   5.75757066796274     -5.83243641169669     -1.57223457937857
  H   4.63722895873438     -4.93084620947644     -2.56715197422075
  H   6.92883879024532     -2.08713996328410      0.66020235843426
  H   5.57541316427354     -2.85622656296597      1.53926216938042
  H   3.85165618454482      2.89667856976946     -0.81414645968566
