26
Coordinates from ORCA-job 4830optt
  Br  1.18656050786712      0.01754699948782     -0.34835130080646
  C   3.06398570313598     -0.16289212728032     -0.19611606170366
  C   3.64648851342631     -1.36800977331753     -0.07167720836165
  C   2.87562011327933     -2.67256613261524     -0.00932920907011
  C   3.72283324132546     -3.88147265858625     -0.40130585933980
  C   5.07055959346765     -3.84405284890774      0.29949198387510
  C   5.79735564652474     -2.56332326097752     -0.09690328376821
  C   6.18803772844067     -2.64579233481879     -1.53206006408017
  N   6.44270621657346     -2.78745537669693     -2.64133132696224
  N   4.99508117460097     -1.40156275512017      0.17648828401621
  N   5.81744015011861     -0.23801424909308      0.11660451608962
  N   5.20120353149894      0.93653221004789      0.08552061199125
  C   3.87113299791160      1.09176599596601     -0.06399376738194
  O   3.31190783515610      2.18919443658363     -0.08619439625436
  N   2.36767837728712     -2.81792894158974      1.36203963603585
  C   1.33428577567084     -3.66747562723187      1.63718650916499
  N   0.60581769630206     -3.73147653945710      2.67787371250366
  H   2.03490564082839     -2.58009316112475     -0.69965742515850
  H   3.87282186889167     -3.87314128904410     -1.48440034310035
  H   3.18109928518893     -4.79561331111867     -0.15354424967460
  H   5.67928664198554     -4.70879731176004      0.03437366352789
  H   4.93130554210985     -3.83212965283056      1.38179725199176
  H   6.71958270330261     -2.43357628509125      0.47174519008948
  H   2.42923932671275     -1.98453573507230      1.93091159320323
  H   1.15620168503895     -4.39548027852111      0.84327667591000
  H   0.85886250335429     -3.00364999183021      3.34755486726301
