26
Coordinates from ORCA-job 4832optt
  Br  1.03933178633224     -0.36668595201261     -0.01739715253587
  C   2.96000068363231     -0.22562453595959     -0.15527333369923
  C   3.54580448658131      1.05652129490337     -0.35911242109119
  C   4.98951752541390      1.04563658118201     -0.45713086971248
  C   5.82140516260702      2.24497787999767     -0.88485240332488
  C   6.49947278019754      3.04184275094837      0.24719752582509
  C   5.58371191863632      4.02743019518373      0.99100540622227
  C   4.27865058400665      3.32844500315090      1.27498709340416
  N   4.02451598335398      2.62061388222725      2.29495340803012
  N   3.37708709075109      3.39099008891180      0.21648568021975
  C   2.77935435263066      2.28663705848151     -0.43967924617607
  O   1.75819041065022      2.48682990927681     -1.07825686197426
  C   5.64811546401009     -0.14085228012849     -0.28453618942884
  C   4.94387395392762     -1.33284206527358     -0.01768184844684
  N   3.57155577855292     -1.34163949277667      0.01884189176031
  C   5.63684377412356     -2.54600371932087      0.19351979094977
  N   6.25232711326736     -3.51245867628398      0.36141279995175
  H   5.22965150141200      2.91534906089323     -1.51252070387539
  H   6.62222574198749      1.85772525551901     -1.51821402315182
  H   7.34783866739791      3.59521814525728     -0.16356878659806
  H   6.90248967733948      2.32441998045322      0.96666153833767
  H   5.40204888092146      4.90449958191031      0.36376438988135
  H   6.05508787089982      4.36380814789476      1.91602221785129
  H   4.82874985144963      2.60806489520545      2.92012588231496
  H   3.26510842379028      4.27073858325969     -0.26410664768441
  H   6.72604053612707     -0.18664157290061     -0.39664713704915
