24
Coordinates from ORCA-job 4834optt
  Br  2.12573167704680     -1.50756598320521     -0.52580675488707
  C   3.06223971802332      0.13418515719489     -0.29838269305113
  C   2.52215362459433      1.24042434126711      0.26059566495448
  C   1.05676560097398      1.15715984353302      0.58600113616676
  C   0.02785138740860      1.86531825725233      0.09996737797080
  C   0.24083295497828      3.05949476856765     -0.70188960395283
  C   -0.35417605939871      4.23385600485781     -0.46562747398657
  C   0.42090692077412      5.51815387426509     -0.58849969224295
  N   -0.19695865856352      6.59229840014078     -0.93616494240917
  N   1.76983949901076      5.41966974701687     -0.30390480842116
  C   2.15334096109004      4.37738673491831      0.42040978542995
  C   3.37925829451542      3.71395137659804      0.36564333809427
  C   3.47465807763667      2.32180442310099      0.54433252632646
  S   5.09254143971259      1.78386142829288      1.02554436843248
  C   5.43257590938240      0.48715986425927     -0.10650634065984
  O   6.51315154843378      0.03913072965840     -0.33595473226603
  O   4.33908020409771     -0.01052405698487     -0.76526470499694
  H   0.82117907702968      0.36530251101819      1.29082625795571
  H   -0.96551045224804      1.66379998329052      0.48979033923181
  H   1.17810007755884      3.06617571904373     -1.24823000204923
  H   -1.29716711793480      4.28350805182860      0.07205019833078
  H   0.47421780266237      7.36060002124020     -0.90643356786382
  H   1.43078243009426      3.86434527511820      1.04963485278919
  H   4.27060508312110      4.24350352772715      0.03786947110405
