23
Coordinates from ORCA-job 4840optt
  Br  0.93558525702509     -0.66114387049930      0.02298533614585
  C   2.81077395297327     -0.46344847119282     -0.15253094521647
  C   3.41961862303494      0.79062564623144      0.10957634011350
  C   2.70833768342753      1.98251294108741      0.42893518159724
  C   3.12050130130537      3.25020513742749      0.16288855057188
  C   4.28988857841778      3.53865528207597     -0.72383890242480
  C   5.68402521621609      3.45212337333647     -0.06664860902713
  C   5.95336756670435      4.58284981146793      0.81264098461303
  N   6.16000755135741      5.51651865543349      1.44483731884636
  S   5.90434737924474      1.89648022276252      0.86993372473541
  O   5.42696731252925      2.10854832332891      2.20520259474266
  O   7.28547436232930      1.52942006055972      0.66583395561214
  C   4.86860063428691      0.74142940573923      0.04444008013480
  C   5.51458170140169     -0.36163727519740     -0.38384577275700
  O   4.88770001164311     -1.45511750685478     -0.81910282889848
  C   3.47254082793125     -1.60599311387721     -0.64145469962411
  O   3.04346352706837     -2.69201173025742     -0.95727557133368
  H   1.74042437644060      1.85204557497296      0.89926652400230
  H   2.54035413115996      4.08821379551960      0.52507065535410
  H   4.20767528721571      4.53662756535013     -1.15858537059285
  H   4.30195563017470      2.81859961051466     -1.54766831931953
  H   6.46799142439485      3.41935865528684     -0.82531284068436
  H   6.59181766371764     -0.44686209321585     -0.38434738659086
