22
Coordinates from ORCA-job 4847optt
  Br  1.27340755262121     -0.35710172259020     -0.50300542369631
  C   3.15608180068401     -0.04089023360403     -0.27443037530764
  C   3.58857886454816      1.21845784880543     -0.02401427575030
  C   2.83716144793709      2.50631561628916      0.12490608170116
  C   3.97219859304078      3.58292921863777      0.24423100802180
  C   3.84833635843410      4.48336141153196      1.38241826270935
  C   3.73985633111667      5.20639706859332      2.33241588500106
  C   5.31709092528304      2.77834811295052      0.27683395604923
  O   6.40291212245371      3.34389536916740      0.38191418828659
  C   4.98655250268514      1.40464986769900      0.09745691747680
  N   5.84631220012982      0.34444162489931     -0.00677938636920
  C   5.26931157391502     -0.81354661924061     -0.23440666410420
  N   3.96474977235103     -1.10373933283903     -0.39030087422257
  C   1.91468813001547      2.51859683993723      1.33417115674525
  O   2.07412964693161      1.85517722813321      2.32060580948114
  C   0.77748676422181      3.44228908346060      1.22309826830339
  C   -0.14966476985415      4.18852172426818      1.08342799933972
  H   2.21683292685159      2.71058070615200     -0.75002564306340
  H   3.98938411248730      4.19276227948555     -0.66356798866452
  H   3.65881733334727      5.83369940396816      3.18595020147426
  H   5.93345645610974     -1.67111494185903     -0.31386472710115
  H   -0.97268064531049      4.85296944615405      0.97496562368951
