31
Coordinates from ORCA-job 4851optt
  Br  1.20563428870408      1.12962465732245     -2.77035703860232
  C   2.29372903663804      0.79105863665460     -1.20520319296515
  C   3.21123667237690      1.68265586441390     -0.82406382731841
  C   3.20308025041589      3.16177691295774     -1.02369960449604
  C   2.59654789153261      3.77474905122671      0.26871486307819
  C   1.10638197826804      4.12776707328995      0.23593816188461
  C   0.03053945678711      3.03280058405498      0.03252606469745
  C   -0.15053366379101      1.98663606312798      1.16585487231210
  O   0.82208649812273      0.99159196967904      1.23617844671503
  C   0.68178184308112     -0.15061894579143      0.33189179709629
  C   1.98624925530434     -0.35627621089826     -0.37506358122697
  C   3.09438949643667     -0.78406323692406      0.40282836399047
  C   4.24026454378828      0.02014588235555      0.57903517892297
  N   5.36515026941691     -0.20076297631612      1.17767075563489
  O   4.13325599979786      1.34531929766583      0.11929185526027
  C   -1.25371413306615      3.72080884355338     -0.12650236016828
  C   -2.29975489623225      4.30473934663986     -0.20581086819515
  H   2.61553565952144      3.43711326650702     -1.89916892314945
  H   4.22238798627860      3.53065320834785     -1.15656729971429
  H   3.11897390997339      4.71029692419932      0.48746290434560
  H   2.80975732328910      3.10180903542691      1.10029554963431
  H   0.94946128214993      4.86504653125734     -0.55771205028839
  H   0.86261531453260      4.64120020603276      1.17249370268684
  H   0.22610625474179      2.49683004169683     -0.89619280940572
  H   -1.14892087057365      1.54592120691193      1.04825552477879
  H   -0.13925117427429      2.51898365570806      2.12335093678060
  H   -0.14303493924031      0.05632301991102     -0.35958286961944
  H   0.42419697250344     -1.01353380773759      0.95167241562217
  H   3.01614680979122     -1.66240633447788      1.03586526083720
  H   5.36717341707743     -1.17109734681515      1.48072562269839
  H   -3.22847273335192      4.81390758001938     -0.29112785182657
