29
Coordinates from ORCA-job 4854optt
  Br  1.91780235704342     -0.00556422153447     -2.95880283995222
  C   3.53880779673978      0.24489227736200     -1.93714333402886
  C   3.71140294684722      1.31478199611911     -1.10133384587325
  C   2.75272513377908      2.46034994257010     -0.98843010567151
  C   1.58157382542680      2.11902328144752     -0.01793750521517
  C   2.01203219004298      1.55951232994271      1.36252827063640
  C   2.19379463813347      0.03748401533127      1.35676658819927
  C   3.12016508504037     -0.49902518241744      2.45776651350531
  O   4.38002087421055      0.12430614561214      2.58039320121907
  C   5.41101383548020     -0.37476393496088      1.70639352250945
  C   5.09778436057406     -0.14594058537734      0.26640887416980
  C   4.68355934485998      1.14835581999411     -0.10448875077979
  C   4.82086328542384     -1.24481940133975     -0.56738630842338
  O   4.98055952432002     -2.43874315647085     -0.39692224818750
  O   4.29281653944715     -0.86953466670349     -1.86222083363936
  C   0.76676403368942      3.32506497582858      0.15980969941245
  N   0.14914035169867      4.28140658445958      0.30749717204015
  H   2.32643824463806      2.74473806369077     -1.95149359319000
  H   3.28212466166122      3.32721527131963     -0.58553398344681
  H   0.94276675427134      1.38135546465630     -0.51328816292722
  H   1.25550478518875      1.83122331844755      2.10266765508524
  H   2.94008446760528      2.04371635442401      1.66778051183064
  H   2.54714599199661     -0.29744159303269      0.38494601920805
  H   1.21802169022003     -0.43818397135391      1.50437347121278
  H   3.25200432057049     -1.57723193223067      2.30019242244603
  H   2.63538634747586     -0.35714332794464      3.42908743303378
  H   5.56271536351347     -1.44304911598326      1.88941286030999
  H   6.30019406212161      0.17179581070430      2.03231071862982
  H   4.92078718798021      1.98321943743968      0.54564657788682
