30
Coordinates from ORCA-job 4860optt
  Br  1.81907147022092     -1.77137712792405      1.51410763755365
  C   3.09160327122283     -0.37783925509185      1.03317292195667
  C   3.00109484344218      0.84188930525021      1.66767728723397
  C   1.70405377434519      1.58690740859144      1.77037645096300
  C   1.21805742901457      1.92714817336124      0.34003838945042
  C   1.96429582171995      3.11212361184774     -0.31838883314933
  C   2.02326046004354      3.03171274579182     -1.86086367733887
  C   3.34132531585552      2.52718322444286     -2.45582876714851
  O   3.43001945938911      1.11704945842844     -2.51560313739601
  C   4.63667877997055      0.54741210746911     -1.96290921521460
  C   4.55106976573974      0.45178774522766     -0.48293742658087
  N   3.85001487878871     -0.61281514083705     -0.00300675046977
  C   4.83615776020785      1.59212021764886      0.33821001155048
  N   5.64519480493015      2.57753588993055      0.15532072868338
  O   4.12076627071294      1.65239709279015      1.51607557061849
  C   1.20279299602798      4.34935246116345      0.06988902370510
  O   1.53637272742271      5.17417277357549      0.87624229489386
  H   1.82864841937758      2.49813131420859      2.36074124545681
  H   0.95608563185718      0.96215053382026      2.25971472395434
  H   0.14176681693108      2.15003805123995      0.34461622888608
  H   1.34650262823968      1.04066347719139     -0.28629881870277
  H   2.97118979222757      3.20953078139856      0.09038223561755
  H   1.87065479585403      4.03616369541824     -2.27377852438913
  H   1.20421522890390      2.41473400214740     -2.24274092710637
  H   4.17003426308503      2.94785710421054     -1.88023568048979
  H   3.41556733395520      2.90888958512512     -3.48255647464933
  H   5.49202835593379      1.13621943882200     -2.31344452589468
  H   4.69596918224514     -0.45266993467924     -2.39087196637582
  H   6.19300292944930      2.40058983090239     -0.68191070887885
  H   0.22250479288600      4.45494142852870     -0.45218931673909
