24
Coordinates from ORCA-job 4863optt
  Br  4.12685840054767     -0.73038420488723      2.41712051116733
  C   3.72179886548569     -0.16187391922153      0.66898174125381
  C   2.60360174501236      0.59493777585011      0.35698402216096
  C   1.64037888792460      1.00759849272794      1.31639746200805
  C   0.47701196126279      1.53736247344339      0.82788860163572
  C   -0.31193469901313      2.59632491037226      1.26380841430169
  C   -0.72977615792119      3.47201001473896      0.25747043885022
  C   -1.68448013163421      4.50960298573789      0.62183411778736
  O   -2.15866862602425      5.37025879683713     -0.09491340757364
  C   -0.19812729067685      3.49099373717043     -1.06699482335125
  C   0.85769555309726      2.92395257115314     -1.77472382586165
  N   1.84683250258353      2.02428959817716     -1.57100255226414
  C   2.52568631466761      1.14701201583801     -0.99621337723750
  O   3.52254046664137      0.57674979252602     -1.91752257404040
  C   4.60396686574379     -0.11004581191145     -1.57977278206444
  O   5.41166419038706     -0.49042505967894     -2.39540331714451
  N   4.75624223604383     -0.36421553946667     -0.23843620679514
  H   1.93015123545984      1.09118927075596      2.35823855980376
  H   0.27302199074581      1.27953435867304     -0.19976608454197
  H   -0.46100944123584      2.84475578705433      2.31123728155032
  H   -1.98495540391207      4.47191733176854      1.69121046360119
  H   -0.73093796016585      4.20237243007995     -1.69149629760727
  H   0.90887452596630      3.32662846175090     -2.78495772835371
  H   5.50256396901382     -0.99954626948938     -0.00996863728477
