27
Coordinates from ORCA-job 4864optt
  Br  4.25887353393542     -1.73005183683718      2.63269597934569
  C   4.88803579091309     -0.80189064693770      1.08336242886371
  C   6.04820194072669     -0.06968337373333      1.08162248956476
  C   6.63744598192115      0.35532220847779     -0.12263886992402
  C   6.35250502557876     -0.18536717972123     -1.38831011429898
  C   7.42916807973687     -0.16975577203142     -2.43631725800793
  C   8.38674753769844     -1.38462656310275     -2.27700753724869
  C   9.24372766401858     -1.23784139578507     -1.04348235279828
  O   10.34625317511171     -0.73650630429343     -1.11630023687584
  C   8.72365494591229     -1.68129716021118      0.31796029101893
  C   9.06750199495115     -0.61120630948244      1.37504626638583
  N   8.08095598221665     -0.38404841942798      2.42743392063084
  C   6.80181335000297      0.13172151809053      2.36143291941128
  O   6.31854713040724      0.65035991557705      3.34790492505722
  C   5.23786201217647     -0.98952472499982     -1.67896828637060
  O   4.98837392823332     -1.60850703977309     -2.71276142265860
  S   3.96067879135082     -1.11442716620720     -0.35145028528512
  H   7.49135095240672      1.02084707091007     -0.05460927169551
  H   8.01823485123026      0.75016325272926     -2.37900599170811
  H   6.98408289295460     -0.23449292992285     -3.42953271035559
  H   9.06252965708398     -1.43707098061293     -3.13222802764671
  H   7.77518888869872     -2.28824530856653     -2.23357489664921
  H   9.24228782538977     -2.61633395865741      0.55410293014399
  H   7.65958630112624     -1.89994812465103      0.28490349282238
  H   9.98184404800983     -0.90466783121955      1.88982826299221
  H   9.30767389845139      0.32064839195498      0.86189395094214
  H   8.47987381975645     -0.17856933156555      3.33199940434418
