27
Coordinates from ORCA-job 4873optt
  Br  1.04174704851241      0.07009356524045     -0.43151624382720
  C   2.98884116055378     -0.08441193879968     -0.23909358613666
  C   3.52477011570180     -1.36566549940097     -0.02404507334769
  C   2.75875436182034     -2.62730700893285      0.23033212528183
  C   3.04123491538146     -3.76206458172775     -0.75297478872399
  C   2.06361313954695     -4.92649434845310     -0.57913552284061
  C   0.69635930018834     -4.56633374515745     -0.93571054429816
  C   -0.41297285169021     -4.22998542065328     -1.23840385434991
  O   4.31987983253479     -4.34620419363112     -0.55754183835504
  C   5.40561311866534     -3.49429833063711     -0.77005270067496
  O   5.60409593339186     -2.55026198012119      0.24307419346232
  C   4.94244242686646     -1.34604774826635      0.06070645770152
  C   5.66977691103177     -0.19924297870134     -0.02336883428100
  C   4.98408403357562      1.03526206513812     -0.21289320211514
  C   5.67443477825202      2.27185634437643     -0.31137064245896
  O   6.91099697957905      2.41265248664580     -0.22651110396957
  N   3.61080358046991      1.03428043400875     -0.33802503196721
  H   1.69097244003965     -2.41534977447894      0.19630298057269
  H   2.98589208000846     -3.02063619109508      1.23048350391437
  H   2.97091786812574     -3.37609702916904     -1.77845559758831
  H   2.10224967497153     -5.25834064293893      0.46185641633200
  H   2.40103928858186     -5.75996219917745     -1.19809932159710
  H   -1.39350240318114     -3.91664150225550     -1.50305074866449
  H   5.29558830616167     -2.97635492845215     -1.73219665157240
  H   6.28600155710910     -4.13470998723513     -0.77217777142095
  H   6.74891899459327     -0.20945390611821      0.03745644359013
  H   5.01544740920810      3.14171903999310     -0.48058906266551
