25
Coordinates from ORCA-job 4875optt
  Br  0.84904608453928      0.00387898274580     -0.25704734539264
  C   2.68640033415574     -0.14287030053543      0.33870229347984
  C   3.42949874091543     -1.27439083375035     -0.00448881330852
  C   3.03898721135258     -2.63418354814436     -0.22135079963833
  C   4.17568744787697     -3.37923129252617     -0.47566552909567
  C   4.23121428807464     -4.85499655871318     -0.71876040872553
  C   4.94985421235649     -5.58857043688443      0.40922793704939
  C   5.08180184926353     -7.06016328256914      0.20243223047640
  O   4.64472060852857     -7.69217251362027     -0.72698950182805
  C   5.85240002028763     -7.86583720825159      1.25871538558546
  O   6.41012286046469     -7.37910487673658      2.19821689648956
  C   5.31679807612693     -2.51618614861914     -0.43321526294681
  C   4.84076274235995     -1.25453858237808     -0.15585435562055
  O   5.64889874120788     -0.12678127520037     -0.11068636880078
  C   5.17333458892294      1.11122236939619      0.07645371721233
  N   5.92166325089636      2.13278678578581      0.01402304898919
  S   3.48569968055068      1.39969984340812      0.53803029777730
  H   2.02261497500989     -2.99883165441570     -0.18468486568376
  H   4.74658703704182     -5.08452993904571     -1.65728063366832
  H   3.21985608456188     -5.25478864184239     -0.81934773924708
  H   4.44298566664657     -5.43048888036215      1.36843678186705
  H   5.95452706534982     -5.18339764085754      0.57275267418963
  H   5.85139115427162     -8.95513248389135      1.05787854845837
  H   6.34689198786672     -2.78202284557625     -0.62271845545683
  H   6.87525529137112      1.83463096258446     -0.18877973216167
