30
Coordinates from ORCA-job 4877opt
  Br  2.78704317881265      0.55142949680163      3.19649731238353
  C   2.83702661334076      0.71904545384843      1.27527876036055
  C   3.45951817458055      1.83523989860925      0.69889907302747
  C   3.64345497429233      3.15067557572466      1.39480566852316
  C   2.30902029579474      3.91170464949603      1.57402563562888
  C   1.43051307171386      3.93050393807091      0.30822225733332
  C   0.45803591408116      2.73928704353225      0.22019631996906
  C   0.26102616258292      2.21759062734866     -1.19492300471108
  O   -0.66294848759395      1.12254353684631     -1.18670944713212
  C   -0.33943146870570     -0.17815769931102     -1.28445222017443
  O   -1.22546281845703     -0.98529499445200     -1.18899035950025
  C   1.09685294032146     -0.62067940162326     -1.57819026619334
  C   2.16363676965649     -0.07950400101270     -0.69025625326742
  O   3.14288350036563      0.64830244445673     -1.35211116981058
  C   3.62286763875651      1.79899099362363     -0.71157598700342
  N   4.15162490405445      2.71214751193781     -1.44968127804454
  N   2.12558540315748     -0.17645366230156      0.61891379026435
  H   4.31599627075696      3.75699265025010      0.78667816326049
  H   4.10644769999641      3.01733866488033      2.37581315507451
  H   2.53645575803120      4.93686838464351      1.88229803514018
  H   1.74265305105427      3.45683939609642      2.39328537038987
  H   2.08672123591073      3.94482165137145     -0.56623277043173
  H   0.85367143503129      4.85906277679263      0.27950439873111
  H   -0.52245822433219      3.01941616421635      0.61533489690589
  H   0.81037729419435      1.91227345177346      0.83350818958068
  H   1.20745857484606      1.94334027442845     -1.65959299007606
  H   -0.20781936706877      2.97729069717236     -1.82532441771041
  H   1.33155656237418     -0.33754441383134     -2.60687601694145
  H   1.04437442476471     -1.71005795026836     -1.53519257371621
  H   4.11531851768648      2.41098684087881     -2.42015227185998
