26
Coordinates from ORCA-job 4886opt
  Br  1.86270647126961     -1.79873022606002      2.03319425303936
  C   2.52492805456354     -0.33904328278554      0.16618807031026
  C   2.39973833892283      1.01996538827008      0.29025392284789
  C   1.38551946880440      1.74594529467045      1.07322474868222
  C   0.11238927044686      2.00974204063715      0.72869265526498
  C   -0.16914971138461      3.42812020304596      0.89120098973052
  C   -0.53097757354268      4.23240857356592     -0.12501661692067
  C   0.37595482765660      5.39677028068758     -0.44789598704216
  O   0.02227737044743      6.47894732079367     -0.84369614988676
  N   1.74730441322754      5.05804239889779     -0.28137711486322
  C   2.09128107987538      3.86749116790093     -0.61764151094449
  N   3.27111229084646      3.26772005201700     -0.33744149055570
  C   3.39771998387314      1.82930656114846     -0.35758062007326
  C   4.46099073160201      1.27946442221957     -1.00612533986108
  C   4.62246556503907     -0.15249662049826     -1.08529816396161
  N   5.56274977870535     -0.82866856652909     -1.65134000389061
  N   3.57424340520168     -0.85707790166456     -0.49278453346132
  H   1.81792551457260      2.42388839214626      1.80751179600037
  H   -0.38291006026315      1.44528339601641     -0.05376739603301
  H   0.41867915933134      3.89164028127205      1.67773383878080
  H   -1.11458697668437      3.85975058658999     -0.96205051162895
  H   1.43579044154594      3.20419035337979     -1.18046662611824
  H   3.95661987829654      3.80373664423361      0.17539220493188
  H   5.17556060629655      1.90839038782990     -1.51958944868700
  H   6.25293984706293     -0.19583616550275     -2.04326172607102
  H   3.66372782428690     -1.86495098228246     -0.52705923958918
