24
Coordinates from ORCA-job 4887optt
  Br  0.88397771226623      0.04617802530195     -0.23993037012213
  C   2.75862833902380      0.07055280889449     -0.03595912325679
  C   3.49627012104811     -1.10718587477218      0.02253340003204
  C   2.95233539073421     -2.40343439340310     -0.06001122979677
  C   3.75149751463870     -3.52535815522372      0.00794364996895
  C   5.13138500610082     -3.39388298123313      0.16314140658854
  C   5.74677472387973     -2.15781793839664      0.25108016959397
  C   7.22224478789324     -2.19909963598984      0.41819713596886
  O   7.84597878354376     -3.24739541478606      0.47832484292031
  N   7.87435380850714     -0.98163371332241      0.50255122035380
  C   9.23303448212047     -0.88285143402627      0.68418802340066
  N   9.91502152195378      0.18751208615752      0.75664379108948
  C   4.93910434252200     -0.95512963841888      0.18156582627757
  N   5.51929951762897      0.21830565882331      0.25923611906981
  O   4.73757167047721      1.36359571354862      0.19177001821990
  C   3.36999409212236      1.35822419503662      0.04299706520845
  N   2.76288311283806      2.47971061053785     -0.01227523076953
  H   1.88244140428828     -2.50081260184979     -0.17997471888038
  H   3.30789161640109     -4.51004037240735     -0.06147582886110
  H   5.76886687784637     -4.26586432110335      0.21656067153893
  H   7.28159124160741     -0.14889653376891      0.43687087436270
  H   9.72216926317489     -1.84861997602124      0.76981823441458
  H   9.31380909114339      1.00675458112064      0.65556888536345
  H   3.44587557823994      3.23018930530188      0.06563516731468
