24
Coordinates from ORCA-job 4890optt
  Br  3.48372858382946      1.80107792397294     -1.83443358070579
  C   3.61166963879595      0.41360022880465     -0.53296006323006
  C   2.64476161450665     -0.63393116757297     -0.47642189820582
  C   1.44716540318906     -0.69023301089264     -1.21206927764145
  C   0.44886774665140     -1.67117468965699     -1.08310567512832
  C   -0.49761023578831     -1.80925613125179     -2.13386928421738
  C   -1.32046663206045     -1.89918234250882     -3.01258745304064
  C   0.28641475514998     -2.64484537360968     -0.00351692431585
  O   -0.07231828485616     -3.78899384982908     -0.14383824278597
  S   0.47563513208866     -1.99433383452375      1.72704149355798
  C   1.41665386233710     -3.32027088981609      2.40226584971208
  C   2.74120463096024     -3.38980024508689      2.60763146824255
  N   3.77988687376696     -2.52107352629074      2.31607529441923
  C   3.79598725395758     -1.53073104122140      1.32975675181307
  C   4.73731713205034     -0.49136956483339      1.38235454474124
  C   4.64220822715677      0.46888538565953      0.37237720157844
  N   2.89522178661262     -1.64672769349465      0.39428333116370
  H   1.30996120530806      0.03395805008151     -2.00400362070526
  H   -2.04428770816954     -1.99418811309760     -3.78347619876803
  H   0.85586495247998     -4.19883668876482      2.69309549308375
  H   3.09718171432837     -4.28482486899840      3.11028432320062
  H   4.64090343605291     -2.67166296394017      2.81090954174509
  H   5.47162462316511     -0.41716800698646      2.17249275819484
  H   5.35142428848436      1.28508241385837      0.32271416729237
