22
Coordinates from ORCA-job 4892optt
  Br  1.49575621039831      0.40165774665332      1.29956300182041
  C   3.01982945537621      0.14290923030349     -0.04054852408455
  C   3.73443498245072     -1.07436023999871      0.02121915750849
  C   3.26818201783931     -2.43049924896990      0.05356807859919
  C   1.81920931384846     -2.83908631813872      0.02710459512104
  C   1.18038390590910     -2.55645876552672     -1.25936086318069
  C   0.66600669138029     -2.33230141281289     -2.31792087395999
  C   4.28102837735990     -3.32874907857553      0.07410168465870
  S   5.84933487075313     -2.57691982810938      0.02742156527855
  C   5.13610049511377     -1.00002539379317     -0.00045846300987
  C   5.80653412705080      0.20761768383401     -0.02444224378707
  O   7.19954843929904      0.25037118094942      0.05720447010003
  C   7.87389524980632      0.57080725687307     -1.05551255930745
  O   7.43061978621914      0.71365539496329     -2.15187874813909
  C   5.10539643431315      1.42846836581400     -0.10365378511628
  O   5.55782091404554      2.54993704868666     -0.14829220136049
  O   3.70511643174844      1.29528543542042     -0.16051507162234
  H   1.26945040372443     -2.31223453247792      0.80959679079206
  H   1.74630636755093     -3.90987847127868      0.22877829387559
  H   0.22374904874246     -2.10890428659619     -3.25781953625441
  H   4.20010651221686     -4.40391700867290      0.08370588644030
  H   8.93718996485357      0.67062524145306     -0.79886065437210
