30
Coordinates from ORCA-job 4898optt
  Br  1.37036766353550     -0.12561326520871     -1.15363647041281
  C   3.22567235621151     -0.14211232989530     -0.56626481971311
  C   3.71842893737511     -1.26765406055490      0.02118818165435
  C   2.99059111525253     -2.52333451040455      0.36952523425768
  C   3.76586754046898     -3.75136548082464     -0.10988743807287
  C   5.18261321441295     -3.69344874863558      0.44478218067298
  C   5.89132689796835     -2.39150118561896      0.04488329260403
  N   5.09464439242773     -1.23985619606292      0.42107660409433
  C   5.77348846763052      0.02882805420641      0.44149111159666
  N   6.94831692234901      0.18146565171539      0.98223075550544
  C   5.09235472883255      1.08857509503374     -0.20534728690778
  N   3.86727025049998      0.99903891947748     -0.76471106235332
  C   6.27964606678937     -2.38981413431913     -1.44443920390295
  N   5.87424162390491     -1.60119441869475     -2.34408775532805
  N   7.20240553181357     -3.39156983387837     -1.74678530755744
  C   7.79781006796892     -3.66140583054490     -2.97134118535165
  N   7.61892022772865     -3.10649498973462     -4.08976968734047
  H   1.99182520122607     -2.50395906920847     -0.05846526889931
  H   2.88532215432765     -2.59324713162461      1.46265085410338
  H   3.79559571952815     -3.75683784101415     -1.20378446893393
  H   3.27263667642947     -4.67121053501020      0.21407743376048
  H   5.76395380150167     -4.55871498605058      0.11857864801094
  H   5.14299386480025     -3.71742601146193      1.53751233727457
  H   6.83374471446813     -2.34592321476452      0.59480103756098
  H   7.24817097806651     -0.66624204391257      1.45396164481246
  H   5.60277158432495      2.04139970457334     -0.25378886383209
  H   5.21999388920230     -0.91507033816046     -1.97069408362975
  H   7.53720162884121     -3.93725191655919     -0.97150434371665
  H   8.51004295560226     -4.48540011038473     -2.88808572676018
  H   6.93378082651078     -2.35465924247743     -3.99916634319587
