28
Coordinates from ORCA-job 4900opt
  Br  1.17385783567653      0.19846735682472     -1.02501556704383
  C   2.98647569536238      0.10822560283577     -0.41791881274642
  C   3.56554275993447     -1.16517145040523     -0.25905489826192
  C   2.79602122118473     -2.39511861197627      0.17672407032810
  C   3.49047285310427     -3.67191326079107     -0.32521850646814
  C   4.95893285375362     -3.67289771562296      0.08050284841257
  C   5.65966265750179     -2.40949043076523     -0.40283347352559
  N   4.95296549435034     -1.22759648832201      0.08009510118249
  C   5.61669784166200     -0.05058460133097      0.27886352696158
  O   6.93406414131700     -0.23558196892193      0.68143973455624
  C   7.88449203930569      0.56202989264971      0.14981801273071
  N   9.06317160330377      0.62442614342218      0.58375017262985
  C   5.06174530313291      1.16395728533358      0.17497664716645
  C   3.66912142328483      1.33698155013593     -0.30443773402497
  O   3.23248420240527      2.47871398127045     -0.55334074556476
  C   2.64474545885469     -2.42984879675476      1.64140094150735
  C   2.56117810269084     -2.39938362729488      2.84035935830808
  H   1.79901104152057     -2.33365729418783     -0.25899600530085
  H   3.41092267650587     -3.68053719915692     -1.41593181505535
  H   2.98229239451357     -4.55632886348463      0.06545415092263
  H   5.47223187066364     -4.54502909514783     -0.33171468605235
  H   5.03415160957620     -3.72288116727032      1.17019111948306
  H   5.67232109678982     -2.39747049410697     -1.50340290623358
  H   6.68409022991710     -2.38413485155579     -0.03934730508930
  H   7.55253060793607      1.14325274997835     -0.70772008945978
  H   9.16755376876443      0.02405347595453      1.40260460935375
  H   5.60779402324857      2.04846293945681      0.47330690944425
  H   2.48046919373885     -2.34694506076635      3.89844534183969
