21
Coordinates from ORCA-job 4901optt
  Br  0.99226967013486     -0.13398315493552      0.07767930139096
  C   2.86871338760506     -0.03721727541160      0.07269634251174
  C   3.51629556758756      1.15313183341631      0.07187536495971
  C   2.90047850333577      2.45295835485117      0.07191098407804
  C   3.64636939842620      3.59168030666611      0.07116721614522
  C   5.07359571642967      3.53577741347907      0.07053923623265
  C   5.64407222585879      2.29975954435902      0.07035664822087
  N   4.93893158517891      1.15003870094839      0.07078791850409
  N   5.68747329423867     -0.00348638709491      0.07077856288886
  C   5.00633427082340     -1.13249489607389      0.07066889804957
  N   5.55616234435104     -2.34623821530498      0.06952906590364
  C   4.53841772632906     -3.22140353858409      0.06884987316778
  C   3.24812764011390     -2.58961178893396      0.06946863357320
  O   2.10741260521384     -3.04271182933149      0.06860708769151
  N   3.60459603144992     -1.22085532131957      0.07121565010136
  C   2.99850533361335      4.87030303613510      0.07079349851724
  N   2.50911873900351      5.91041651830123      0.07114156227508
  H   1.82248664228503      2.49904855369067      0.07217559506964
  H   5.67834937506580      4.42728096624224      0.07022348213685
  H   6.71180051585920      2.13694169177229      0.06993070955376
  H   4.68848942709646     -4.28933451287157      0.06760436902823
