28
Coordinates from ORCA-job 4905optt
  Br  0.95482935069042      0.07535932709657      0.75560305396408
  C   2.79015933483694     -0.18329726886078     -0.31546953358891
  C   3.51402770218650     -1.36102037248345     -0.13587952060480
  C   3.19597458878128     -2.75115343941965     -0.09930164146532
  C   4.38045054368336     -3.44291656014668      0.04711704904854
  C   5.48367184699854     -2.52296319754839      0.10681144430527
  C   6.93137704736914     -2.85618090800088      0.24537258091924
  N   7.67547770958527     -2.98807307521831     -1.01457027436778
  C   7.15799469845960     -3.85194033848616     -2.07431667268862
  C   7.95171463635790     -3.33468624745548     -3.28711229180308
  N   8.38879312026733     -1.97701265131203     -2.91946837663328
  C   8.18794650455991     -1.89198505248014     -1.66350474727973
  C   4.92104612025268     -1.27286657642329     -0.00246549714984
  O   5.59726226678218     -0.06605144453293      0.03424288202341
  C   4.89615536643716      1.08269683490139     -0.04939742437560
  N   5.44486262442826      2.22826347188654      0.03422201372354
  N   3.54105005905541      0.97155332077242     -0.27164011204233
  H   2.19969133445077     -3.16151983044967     -0.15482184368989
  H   4.48568537351864     -4.51778982193104      0.12160572605538
  H   7.04180553652893     -3.80058984546053      0.78505644043157
  H   7.45108831422121     -2.09008243949431      0.82615762313057
  H   6.08037845214747     -3.68983041642422     -2.18720979896501
  H   7.33466218893059     -4.90513158818910     -1.85118715174928
  H   7.36159980669302     -3.31610171412845     -4.20302512624972
  H   8.83895277215657     -3.94933068153453     -3.47355577185258
  H   8.42870271976019     -1.00893142756892     -1.07972203967109
  H   6.44515531984350      2.11352545033815      0.16207078920386
  H   3.07448466101671      1.86005649255406     -0.36461177862853
