30
Coordinates from ORCA-job 4911optt
  Br  0.96295525924277     -0.28306985764532     -0.12082018090059
  C   2.87196999471373     -0.13027832651435     -0.06066685955503
  C   3.53471930500501      1.08740322010567      0.10262319314382
  C   2.78112187529274      2.38495772058830      0.27172302279862
  C   2.92234898993812      3.33893289322568     -0.92335013828657
  C   4.22211415749227      4.13937951482385     -0.92058994717854
  C   5.49673720106785      3.29474675281606     -0.91924810166209
  N   5.63544282308678      2.37914886618047      0.20328259221112
  C   4.94080173759836      1.12740758277582      0.08377963045204
  C   5.74521888044799     -0.03953084973946     -0.09580480195499
  C   7.16005619020163     -0.07445994562977     -0.13938655021212
  O   7.84302493590951     -1.13021162892553     -0.29628317535862
  C   4.99995771134880     -1.24427007534237     -0.24258720457279
  C   3.60421867062165     -1.32860861850211     -0.23791655414464
  C   3.27548831848593     -2.70315261321608     -0.43307415226274
  C   4.46406744522876     -3.38637450098016     -0.54385714802587
  N   5.49742356441893     -2.49998786941610     -0.42649571619943
  H   3.13258636165581      2.90026564559362      1.17337277246255
  H   1.72774155793581      2.16797074798442      0.43240441944859
  H   2.08394538488197      4.04245068474633     -0.92014168336661
  H   2.84402736107051      2.75557317462661     -1.84556719580938
  H   4.23549290635825      4.77795871260750     -0.02762347813904
  H   4.24404352067896      4.81522499444614     -1.78273948777318
  H   6.36132705420472      3.96882409853661     -0.93482308164342
  H   5.54826091625184      2.68882628673873     -1.82750941540077
  H   5.43313100959117      2.84704655419502      1.07928154144701
  H   7.67204624132962      0.88945771862691     -0.02520576095557
  H   2.28645363706964     -3.12765848667430     -0.48562395134731
  H   4.64687255415181     -4.43707053043165     -0.69677785855290
  H   6.50240443471898     -2.62890186560057     -0.46537472866155
