26
Coordinates from ORCA-job 4912optt
  Br  0.67559048430779      0.90981496648720      0.01418955581257
  C   3.03465698462131     -0.20405325989303      0.00168667428786
  C   3.70580358973354     -1.40827403578739      0.02747777296957
  C   3.25672486260887     -2.75494839493797      0.11350592591562
  C   4.36908094584800     -3.56104319039006      0.14610181985801
  C   5.55311338558204     -2.76086507986382      0.07618923857358
  C   6.87309662300934     -3.26703770377664      0.15265212631893
  N   7.93766985626125     -3.70076965547613      0.24725271103573
  C   5.15674230053269     -1.42032859120988     -0.00170661030476
  C   5.85675592805284     -0.18723890123756     -0.08517035458766
  C   7.35331177259031     -0.12111642434037     -0.20354519151221
  O   7.84652150241054     -0.61966431449671     -1.43774725034708
  C   7.29395515913449      0.03449556619745     -2.55102945143339
  C   8.03909375070027     -0.32866237598438     -3.75584634444895
  C   8.63097691020037     -0.60878784546843     -4.75787716591671
  C   5.12108156870304      0.95801295084525     -0.10825099492424
  N   3.75232921447202      0.91949986448480     -0.05582184940909
  H   2.22401975467397     -3.06251410948743      0.15320399509532
  H   4.37737056382485     -4.63891403194717      0.21914444470857
  H   7.83289972553828     -0.73813204253022      0.55557378586802
  H   7.68092280769860      0.91993371454971     -0.07637659716731
  H   7.34006985409183      1.12552024182951     -2.42105166954053
  H   6.23903455192208     -0.23211186729414     -2.68121453287831
  H   9.16114684463375     -0.87012046568482     -5.64125525479855
  H   5.56855891543599      1.94100656693398     -0.17370240679987
  H   3.21147214341167      1.77729841847830     -0.06738237637505
