27
Coordinates from ORCA-job 4916opt
  Br  1.28915963916812     -0.50506148779174     -1.07711442123819
  C   2.98961437973769     -0.24400260337240     -0.21170966012918
  C   3.71785434523564     -1.39475732028702      0.18493966724310
  C   3.01933554582271     -2.69991766401377      0.45068468883326
  C   3.21531914963511     -3.75330968325688     -0.66339416554429
  C   4.61290381387016     -4.38711549494037     -0.60162394378018
  C   5.79622326764361     -3.42207659335833     -0.57953180455576
  N   5.82442608765774     -2.53500044911730      0.58487781588517
  C   5.10389759189028     -1.30476164258210      0.45667185037056
  C   5.78067446220523     -0.12923925423107      0.57717251865421
  S   4.99767885551315      1.42357583843622      0.61482738414957
  C   3.36420385152211      1.10893137654085     -0.14019310432663
  O   2.74116191081598      2.11085489394549     -0.47348185306575
  C   5.95079959872072     -2.65106794081122     -1.88722353266715
  O   6.91453604786402     -1.97012324244732     -2.11637465772844
  C   2.21310286549869     -4.81574052761735     -0.56212493745510
  C   1.39995829529216     -5.69070939259175     -0.44428322484109
  H   1.95360289126420     -2.52454442372974      0.57420267710378
  H   3.39786752565792     -3.13342215470446      1.38196253023176
  H   3.06717509481485     -3.24576446819054     -1.62153292066556
  H   4.73534255950171     -5.06659133186718     -1.45138310492916
  H   4.66410995316652     -4.99436694959592      0.30502363080187
  H   6.69819804912271     -4.03982309983167     -0.50907774601152
  H   6.78065369705467     -2.33358842469636      0.84281569697661
  H   6.86264503002062     -0.10615921832304      0.60846447684158
  H   5.14481458403240     -2.75812167123493     -2.63948765876232
  H   0.66674090727116     -6.45309707032998     -0.34210620139119
