22
Coordinates from ORCA-job 4918opt
  Br  2.08052706632013     -1.30167623240816      2.60771326562349
  C   2.75766461050728     -0.36835331498036      1.09045855121846
  C   2.35140646468085      0.90307013629465      0.76025865635787
  C   1.44721987483172      1.61539835926643      1.63345267228808
  C   0.87413132142102      2.84516645980818      1.49377127233518
  C   0.97443338170838      3.76684256831128      0.44591603522231
  C   1.75474199057350      3.60299151928496     -0.70673246139456
  N   2.58364606663642      2.65000704809861     -1.06819831271803
  C   2.91349380706508      1.47668463486860     -0.47322818799042
  N   3.84217191117111      0.80971330091249     -1.15946070369519
  C   4.26738819117508     -0.38269553205724     -0.79754118857257
  C   5.33167535955559     -1.02726619103874     -1.59047194838519
  O   5.89488541911246     -0.52882306718128     -2.53936638797641
  C   3.74779265086981     -1.12433364062912      0.34398125330503
  O   4.11806132275407     -2.25955668346038      0.64838126005485
  C   1.64290700591800      4.68131631911370     -1.67341432405212
  C   1.52042452424750      5.58000448224138     -2.45944149268752
  H   1.19673845147678      1.08892031548273      2.54180986223244
  H   0.23437412196379      3.14723680230983      2.31751035412980
  H   0.40408025945892      4.68321184667142      0.51631155095014
  H   5.59700482719187     -2.03755469407520     -1.24068624170176
  H   1.42723137136032      6.36169556316612     -3.17302348454389
