21
Coordinates from ORCA-job 4919optt
  Br  1.47234662918185      0.26160598372614     -1.15227423857671
  C   3.00116775082257     -0.02308386418619      0.04997851650315
  C   3.72501876332752     -1.23523899392115     -0.00887537764853
  C   3.35763349741135     -2.60738037841080     -0.08319435498794
  C   4.53509543790199     -3.35415083057722     -0.13883290755585
  C   5.64299669574272     -2.47850761764571     -0.09399690038070
  C   7.00427860170831     -2.86141619164461     -0.13131431155966
  N   8.10595865177990     -3.19973850740949     -0.16490166224820
  C   5.13785446006749     -1.16953914571492     -0.00982295137186
  N   5.83209560568661      0.02759608625656      0.02279312050187
  C   5.11434686303752      1.06822963230440      0.07979463721129
  O   3.75775231892678      1.12851411394027      0.11934443162377
  C   2.02839322067269     -3.16396384929647     -0.08082066506986
  C   1.45947814613811     -4.27395588323319     -0.62149734366717
  N   0.12700413069153     -4.34698573410817     -0.24375560420908
  C   -0.04851514753830     -3.29809919688940      0.47861088855808
  O   1.04512096424392     -2.53578836956461      0.63307326985278
  H   4.59421713760681     -4.43171426699954     -0.17179468051026
  H   5.53847235918948      2.06372962344199      0.11917214416808
  H   1.91450222014441     -5.00414400070523     -1.26761724808473
  H   -0.95221830674333     -2.95996860936263      0.95793123745154
