22
Coordinates from ORCA-job 4920optt
  Br  1.21394358127184      0.02604055175654     -0.17075996424739
  C   3.11404042691060      0.06997766033200     -0.02582076898800
  C   3.78665653762503     -1.17785030379140     -0.03470181569568
  C   3.28307225184934     -2.50369674490328     -0.09028985570128
  C   4.35045719815442     -3.38218048652035     -0.04371481489851
  C   5.55522229652921     -2.63103392779535      0.03915471989038
  C   6.86650418789349     -3.15214821922782      0.10940869048807
  N   7.93651332634293     -3.58102282292433      0.16983291168370
  C   5.20038581125551     -1.27358194692947      0.04435516732186
  S   6.28097070196003      0.07835801931609      0.13141902667752
  C   5.15797562459011      1.38812538475319      0.15676122381475
  C   3.78768173701912      1.29002573560622      0.08231361075958
  C   2.98070487074332      2.59175845794377      0.11726083637136
  C   3.66490535889576      3.71804909827499      0.76056524360635
  C   4.20152240618365      4.64720557432409      1.28966856186252
  C   2.54382839079201      2.99973586307316     -1.23149131195179
  N   2.19522413943366      3.34271373524944     -2.26760123785530
  H   2.23838260969732     -2.76485605282011     -0.15433241827623
  H   4.30244242524501     -4.46031437925249     -0.06615207722748
  H   5.63182693182828      2.35373360502624      0.25197494221916
  H   2.06461048193105      2.39952126059210      0.68261622938802
  H   4.68912870384827      5.46543993791676      1.76153310075839
