28
Coordinates from ORCA-job 4922optt
  Br  1.23592346316945      0.02186580569500      1.60145697364396
  C   1.81061849158065      0.84149957916208     -0.05735466487628
  C   2.99023599453384      1.62058960304127      0.02092720792134
  C   3.17946064798947      2.47785143624297      1.26528239239151
  C   1.86480148357021      3.20801734553094      1.52633619073356
  C   1.13766432860260      3.67430578919762      0.51919797240209
  C   -0.31347211864470      4.05037810203140      0.50094423514888
  N   -1.03846360465825      3.40604833111029     -0.60766162251470
  C   -1.42745910928235      2.03014798565819     -0.44921313571673
  C   -1.69572848890259      1.24024934558323     -1.69229761290367
  C   -0.58766297803781      0.79851049572107     -0.78214024162590
  C   0.86389650504789      0.89423532308638     -1.11383871892742
  C   1.30897479567606      1.21490757736765     -2.36105737647144
  S   3.00244448542723      1.40192080522802     -2.73277007065011
  C   3.70004349351010      2.01004450775354     -1.12807589852815
  O   4.69660397241055      2.72533434304261     -1.21678143027706
  H   4.00373945388983      3.16741313359815      1.07335105638838
  H   3.44108825819167      1.88607939949280      2.14512715560253
  H   1.44756906806360      3.17807224777359      2.53005068230683
  H   1.58666867829772      3.64533874240181     -0.47377434191282
  H   -0.44365930722058      5.12961703342973      0.37259786117432
  H   -0.79977527702681      3.77309748090653      1.43946899859229
  H   -0.49236968656913      3.50562088147000     -1.45771091270737
  H   -2.11967218731876      1.89983786068979      0.37541359950289
  H   -1.42402032001129      1.72896197393996     -2.61976135592024
  H   -2.58769642962027      0.63114529679849     -1.75768862163321
  H   -0.83703038285111     -0.05227761058329     -0.16166352997858
  H   0.62927677018277      1.38318718463016     -3.18536479116490
