25
Coordinates from ORCA-job 4930optt
  Br  1.15350099589232      0.21031990472738     -0.14874635253291
  C   3.09474090906456      0.01811250484655     -0.07817316625505
  C   3.62281391134335     -1.28869322802588     -0.04171301362180
  C   2.80892555466004     -2.55484494909153      0.05411805076948
  C   2.30105225563074     -2.78542346914335      1.41373017950060
  C   1.88319205772217     -2.95089914139329      2.52463371683046
  C   3.68146011579481     -3.73393840597023     -0.42700536780807
  N   4.93028231585889     -3.72430797228625      0.32169736726684
  C   5.77510743892723     -2.60834792118719     -0.08335177079343
  C   5.03222168516939     -1.29344689125699     -0.03601608353910
  N   5.77947418661999     -0.22086435852333     -0.05438202102130
  C   5.14556195297676      0.99309276015133     -0.07366938974506
  C   5.88211407539032      2.21490792148125     -0.07808425395218
  O   7.11487599511795      2.33512398661012     -0.06738225890289
  N   3.76695252220734      1.10192604005713     -0.09869331082103
  C   3.00789009033844     -5.02549530484209     -0.29487996934001
  C   2.46776253720141     -6.09120538517655     -0.20763957852682
  H   1.94385092018435     -2.48803796620059     -0.61185450729813
  H   1.52112934037875     -3.08469136148888      3.51451147300821
  H   3.85602116852844     -3.55828871846948     -1.50205301833895
  H   5.41423576881983     -4.60452473173527      0.20377824697807
  H   6.15414604540286     -2.72439129562633     -1.11143054999404
  H   6.63539181845160     -2.53801697773992      0.58006734130442
  H   5.22656309875000      3.10455780592993     -0.09177397878580
  H   1.97973323956832     -7.03062284564646     -0.11368778438148
