27
Coordinates from ORCA-job 4933optt
  Br  0.66473414597123      0.14857861785599     -1.17438971274054
  C   2.84020932049829      0.18058139224411      0.06544757332032
  C   3.50908747712155     -0.97277298821931     -0.06591170946710
  C   3.00127256051939     -2.35596940100312     -0.38243611451334
  C   4.21863175592832     -3.24084646226849     -0.02609441837780
  C   4.36964814641863     -4.42670204745094     -0.86981043517545
  C   4.48276372500222     -5.40825328248502     -1.54769941424777
  N   5.35340633755751     -2.32157622886270     -0.15748387357603
  C   6.72576911383543     -2.71511429178025      0.00711681441803
  C   7.18416707567425     -2.77070093880078      1.47459230705449
  C   6.61948183144400     -3.90243561513813      2.20482279695886
  C   6.15796422562153     -4.85327854627802      2.77060428189563
  C   4.94428582470345     -1.02179192450547     -0.00516957264879
  N   5.81148076918266     -0.06555284636817      0.16084972177593
  C   5.39499484732994      1.24278716917564      0.27581219753953
  N   6.17890821901073      2.24279168846950      0.39411141031898
  S   3.64097133564731      1.66327159179377      0.30267249947261
  H   2.76303243044346     -2.44206829342951     -1.44509436509505
  H   2.11553362103494     -2.63343361188235      0.18367303878959
  H   4.13755268976798     -3.58101553396956      1.01275058656677
  H   4.57278814223436     -6.27242112023045     -2.16004523807230
  H   7.33687321769628     -1.97504263216130     -0.50879860177090
  H   6.86538735756409     -3.68735990865608     -0.46840679812329
  H   6.90566946514510     -1.82967941078166      1.95334039828753
  H   8.27432942272759     -2.84176091812926      1.50579325476273
  H   5.73473585593694     -5.69145203639447      3.26876627563035
  H   7.13732108598264      1.89321757925610      0.37998709701699
