31
Coordinates from ORCA-job 4935optt
  Br  3.19977773703819     -1.27560928863814     -2.38584249025765
  C   3.07069136411416     -0.09063321957424     -0.90694463256319
  C   3.25935790317233      1.30631382463885     -1.04239980183113
  C   3.25720686856466      1.98672652857416     -2.38213547018405
  C   1.80591926012194      2.29257456589402     -2.80874015785489
  C   1.06617045810493      3.20698821742659     -1.81783696146019
  C   0.36588385675721      2.48332024502593     -0.65282271845592
  N   0.35921825953479      3.28497165905546      0.57115334337124
  C   0.64169563388989      2.62954718693414      1.81948647340999
  C   2.18241161386488      2.56079132179306      2.15071809485899
  C   2.89192666727184      1.65155983904657      1.20528235208127
  N   2.59090497068500      0.28174354667695      1.35840565252987
  C   2.77615685112739     -0.67833512980963      0.35163046891040
  O   2.63870014133657     -1.86817356786750      0.63127101251065
  N   3.20321010755580      2.12633770197912     -0.00428419403477
  C   -0.04526677883252      3.31858806242221      2.95019996769537
  O   -0.76006713404188      4.28810820076183      2.85363258842706
  H   3.74172208305612      1.38142487954466     -3.14893403045695
  H   3.79943996980370      2.92912098167393     -2.28287086109461
  H   1.26654624693551      1.34690167128918     -2.93066169065607
  H   1.83021830890368      2.76678402336906     -3.79459355303581
  H   0.32537053870341      3.80621875400236     -2.35675648040743
  H   1.78137529993368      3.90018310336716     -1.37365108723088
  H   0.86802197153991      1.53939278514631     -0.44822660761395
  H   -0.65767957212466      2.21862359544830     -0.95088033866080
  H   -0.46488497470232      3.86265530186794      0.66614568366454
  H   0.30018729848314      1.57740037586483      1.84994078940042
  H   2.28971186104411      2.21497691996106      3.18610199059429
  H   2.58887515158916      3.56752745615842      2.05860856973488
  H   2.53463706681733     -0.11710961238047      2.28375025914267
  H   0.16856096975201      2.88508007034784      3.94725382946666
