23
Coordinates from ORCA-job 4941optt
  Br  0.87339796320628     -0.06775625858747     -0.45865783357047
  C   2.68573095158170     -0.05787558627651      0.19597883375053
  C   3.47552192365396      1.11672387207521      0.06793279028032
  C   2.74924119854130      2.42392458634906     -0.03751812974868
  C   3.61008050773699      3.62950498172481     -0.07086362487104
  C   4.94070872592003      3.59392495017721     -0.09253646251625
  C   5.67882279912584      4.82131169787952     -0.18830896313893
  N   6.26954049047640      5.80216249111103     -0.28140660634341
  C   5.73140364409233      2.30320857405325     -0.07868876773939
  C   6.81270503567286      2.40465227836197      0.92087230520645
  N   7.66989050903912      2.49951871757433      1.67627444176706
  C   4.87839519987753      1.06206431979688      0.14775610308889
  C   5.55956401126938     -0.10236354924708      0.40904560652616
  N   4.84226982705163     -1.27191546960403      0.71623730710956
  S   3.43819584648012     -1.57631385491309     -0.12353218786891
  O   3.73614685689838     -1.77704251503213     -1.52383710909869
  O   2.79428046086206     -2.67544018490337      0.54943676307402
  H   2.02910745211420      2.52742610370252      0.78448559559425
  H   2.12495119821303      2.44116356892098     -0.94111027371370
  H   3.11774236476964      4.59508672150862     -0.11086256987028
  H   6.24265997823652      2.21895011295549     -1.04643753185096
  H   6.63632343588107     -0.15763900287975      0.47042142545137
  H   5.37131961929954     -2.12027655474747      0.86031888848206
