26
Coordinates from ORCA-job 4942optt
  Br  1.22135286607050      0.05118625505264      0.59138170553872
  C   3.12800283442264     -0.25013443932450      0.81105597611616
  C   3.73706790863606     -1.37696808338262      0.25554142079470
  C   3.38760262401743     -2.74458948097608      0.08546702238731
  C   4.49436380887980     -3.39840714599052     -0.43783220670750
  C   4.59069606389649     -4.87085044226673     -0.69621961900142
  C   4.99899169294947     -5.63160656573744      0.56022355302188
  N   5.09688183658127     -7.07237442767587      0.31666806585120
  C   5.56133489791478     -7.77218679960560      1.49547722664979
  C   5.71452984652671     -9.21004195032521      1.24648183070982
  N   5.85939043681728    -10.32974377036310      1.05141709928125
  C   5.56516352239702     -2.46243045954904     -0.60561858313651
  C   5.07074168404900     -1.24956943532719     -0.18295485765680
  O   5.72480874485565     -0.02510866743118     -0.18398651120723
  C   5.07330076980788      1.07559214534891      0.19578216978740
  O   5.59459641575593      2.15243053654389      0.14281118332033
  O   3.81884852171522      0.95631930906298      0.67033012232483
  H   2.42646100094578     -3.18162352332440      0.31481239036832
  H   5.32651423621439     -5.07058781852465     -1.48408380418561
  H   3.63269550644708     -5.26789637548558     -1.04209023798507
  H   4.24361170237739     -5.46936486985964      1.33370238817385
  H   5.94309571067435     -5.21565690940359      0.94282585094257
  H   5.72376717724278     -7.24710631942322     -0.46146255251065
  H   4.82228897286516     -7.64565916052441      2.29076266084696
  H   6.51943964977189     -7.39987399377421      1.88958259778555
  H   6.54545156816795     -2.66274760773350     -1.01207489150986
