25
Coordinates from ORCA-job 4945optt
  Br  1.82213694377039     -1.42956714352945     -2.31164237398696
  C   2.60164192618751     -0.32867067599951     -0.99094255847609
  C   3.18771468801619      0.86981758152754     -1.28555728625159
  C   2.86103600718201      1.85312864974691     -2.36532404001301
  C   1.57145953682843      2.25386734601786     -2.21270094245023
  C   1.32789073445612      3.55635869290832     -1.60297515124227
  C   0.45749365109115      3.60440399693039     -0.57859215590362
  N   0.71162990912749      4.33338799244799      0.63236550297055
  C   1.33441901559432      3.40080430876545      1.56336856788682
  C   0.48541920190204      2.85625874882231      2.55601788632287
  O   -0.72786462594082      3.10847521330787      2.66942538105508
  C   2.65852415309114      3.02335493858125      1.25297844735989
  C   2.99038998168363      1.72721539404127      0.78061906207135
  N   2.36046482020276      0.57565661605033      1.19789795065671
  C   2.20646803704099     -0.56639578472599      0.38911081003985
  O   1.66571539495823     -1.55579047351865      0.83838662157625
  N   3.72797549930683      1.67292181957392     -0.32755342686785
  H   3.62787714721751      2.60565843771676     -2.50021782072984
  H   0.83115959012472      1.49313856582454     -1.98165087770741
  H   2.12851286123788      4.28723380400050     -1.63899907139137
  H   -0.32667292859908      2.84901223696774     -0.50824515244151
  H   -0.17709416194713      4.57908533295741      1.06346943948275
  H   0.98473109142569      2.21398021333374      3.30534544066718
  H   3.20792072645920      3.76889099599722      0.69238662197211
  H   1.78005079958279      0.58977319225424      2.02402912540034
