25
Coordinates from ORCA-job 4948optt
  Br  1.40864028347445      0.49236174258913      1.11264672117610
  C   2.89156436161456     -0.00376443584042     -0.18339693243744
  C   3.55753769299745     -1.24993827145429     -0.03450588170694
  C   2.93788730005526     -2.52678324637673      0.04730590795135
  C   1.44046390576630     -2.68790125997678     -0.03861370581982
  C   0.87770816973104     -2.15284272267165     -1.36545666490499
  C   -0.54126941113253     -2.46850672354441     -1.51222593896469
  N   -1.65138556313608     -2.73678018882748     -1.61912457420515
  C   3.68684594819421     -3.66829788323502      0.17890381226219
  C   5.12129405744386     -3.64077354159704      0.22117658858904
  O   5.86526838443966     -4.61154464530803      0.32964732497444
  N   5.67068703891767     -2.37056580617322      0.10802362708326
  C   4.98472291140095     -1.18601089369686     -0.01029194796903
  C   5.66161924223581      0.00687879693745     -0.08413699076044
  C   4.96148766220448      1.22849815676023     -0.31083078865836
  N   5.40209238979678      2.41866625927168     -0.44564658529348
  O   3.58553296021761      1.11571808295231     -0.45274338423786
  H   0.94837061446423     -2.16827024591454      0.78248376940202
  H   1.20029457148230     -3.74795607568691      0.04429039984432
  H   1.41448057544880     -2.59731557933124     -2.20577286940119
  H   1.00468644470324     -1.07118205887225     -1.42299448992935
  H   3.22525733986758     -4.64329465513658      0.23953111470088
  H   6.67992977761704     -2.34664242019565      0.12478511999326
  H   6.73970965862881      0.04149185816115     -0.00988163713243
  H   6.41457368356639      2.40275575716719     -0.36417199455570
