27
Coordinates from ORCA-job 4951optt
  Br  1.86957961974013      0.31679830788678     -1.40338650583973
  C   3.74194877382044      0.40147153957762     -0.90348659864889
  C   4.31832627175092      1.61722813419573     -0.55273323792624
  C   3.55220154587384      2.85800808055265     -0.16136098071296
  C   2.81047272759756      3.61135070424271     -1.30140103857880
  C   3.43513157917787      3.44342180489598     -2.68751196234251
  C   4.96931932373769      3.53296391934468     -2.73828009214274
  N   5.55347541223575      4.36505127763249     -1.69559315234020
  C   6.47399114144079      3.85762329249172     -0.77179550618284
  N   6.58716508900691      2.68446516293125     -0.27331854508583
  C   5.76906495843553      1.59191859693576     -0.38181513460048
  C   6.30683995249374      0.30061625114550     -0.22252903568569
  Br  8.16339076595697      0.16621249383099      0.33150218486534
  N   5.72242746555072     -0.83357121657039     -0.45147535288014
  C   4.43307410224132     -0.78241042671527     -0.91229150600012
  C   2.62532093845340      2.61602658269880      0.95739592627629
  N   1.91365238316871      2.45129271776303      1.84396994509301
  H   4.29290228528695      3.54292473091195      0.25018796270929
  H   2.78880003949791      4.66866479762034     -1.02983755444811
  H   1.77670782801200      3.26969413724949     -1.35003602479937
  H   2.99725633501592      4.20749224247606     -3.33693867477859
  H   3.14069100420454      2.47590922184284     -3.09972374408522
  H   5.27732500344686      3.91343335104316     -3.71802016911520
  H   5.39883682863203      2.53910526667734     -2.64105371974800
  H   5.76272078624891      5.30921506521188     -1.97267292156744
  H   7.19429560272525      4.60679562153122     -0.44687326251196
  H   3.98408223624721     -1.70670165740440     -1.24692129892284
