29
Coordinates from ORCA-job 4955optt
  Br  1.49979461820193      0.09577389819342      1.21152936073797
  C   3.50667857901186     -0.56731906766262     -0.21409456210932
  C   3.40281310696176     -1.68393576114544     -0.99351902151265
  C   2.10300032894920     -2.38948160314045     -1.27714085448761
  C   1.82408451483633     -3.39380068721818     -0.12692006640384
  C   2.23695016781610     -4.86778800617202     -0.27870261882475
  C   3.71797441364183     -5.28423015883194     -0.45433688113462
  N   4.62237783067783     -4.75288267321177      0.58361630481213
  C   6.00367844668983     -4.51888662770522      0.28409214062381
  N   6.53170624208354     -3.42677629704604     -0.08855330565273
  C   5.64632908044030     -2.34102472165025     -0.27914323821394
  C   4.56390823615172     -2.46941043117357     -1.09310256109951
  C   5.77853678188061     -1.15877355751810      0.54480711460710
  O   6.69966860135426     -0.87584667287016      1.30170945916968
  N   4.67553817189460     -0.30459984311859      0.41046751787477
  C   3.78877070364905     -6.75833093742360     -0.49710979175867
  C   3.85304392473996     -7.95623238545642     -0.48429498571145
  H   2.13072197252469     -2.90892658196179     -2.24282625323713
  H   1.29261692951005     -1.66247210163031     -1.30369550347956
  H   0.74559008731360     -3.42211806321277      0.05065506064972
  H   2.25863619231247     -2.98121602592108      0.78526849579613
  H   1.70559710522075     -5.31116124661515     -1.12760468578462
  H   1.87248272023823     -5.39479648337903      0.60889410782489
  H   4.07404452433691     -4.94343554709215     -1.42018840413842
  H   4.57090730005150     -5.37088568412404      1.38491733268583
  H   6.68135205494165     -5.35138496398285      0.48505320257788
  H   4.55991006538201     -3.30054928887878     -1.78514026500598
  H   4.72533463206121      0.51513930177049      1.00239709520981
  H   3.91195266712605     -9.01764778182147     -0.48303419401493
