24
Coordinates from ORCA-job 4962optt
  Br  1.62349382214092      0.52488439924528     -0.13287450113944
  C   3.40063328381839      0.13798075813447      0.70179831818525
  C   3.97187981844831     -1.12729193845820      0.45914920702249
  C   3.45864251771098     -2.42580519629771      0.43119518069107
  C   4.53123285298765     -3.28726411025285      0.15512129195116
  C   5.71713690951773     -2.55840923434535     -0.01889633186080
  C   7.03314750702621     -3.18834520970501     -0.35826927267304
  N   8.05725065140035     -3.28984123255560      0.68988465394384
  C   7.89517212943853     -2.66489591434901      1.76344929556966
  N   8.86859036475175     -2.72721950180986      2.76163877344251
  C   8.80247247871329     -2.07178664749351      3.94745017904360
  O   9.64892085874798     -2.13188303411945      4.80878600186075
  C   5.37854309789074     -1.20013254559242      0.17721315682954
  C   6.01750138255535      0.05022620671335      0.02258734376285
  Br  7.83725148348679      0.13009838012744     -0.58215450426689
  N   5.52623618826899      1.21710086108973      0.22136435655340
  O   4.19329959926378      1.22355370428735      0.73366919660743
  H   2.42622314635669     -2.69797733216192      0.58834223187409
  H   4.46740561826901     -4.36413372071555      0.06759632952068
  H   7.51952433348518     -2.67829594795090     -1.19335507738913
  H   6.84515608259688     -4.21052940289803     -0.69456480879855
  H   7.02837416599497     -2.04831529202041      2.01172996313785
  H   9.68797700350044     -3.28957831019730      2.57440684774320
  H   7.88593470362881     -1.47013973867445      4.04873216838843
