28
Coordinates from ORCA-job 4964optt
  Br  3.33354655364334      1.73048467523633     -2.15932901533725
  C   4.12753285011796      0.95537387269585     -0.56428021109837
  C   5.09518213669158      1.61107241506787      0.12809014959111
  C   6.00954591527110      0.81191983263829      0.87398263388376
  C   6.25573916614170     -0.50349254718783      0.45002113647363
  C   7.69863010954140     -0.89775156509729      0.31722965114152
  C   8.41296633502042      0.00796598650242     -0.72434114073583
  N   8.88491711561045      1.25259059236583     -0.13665885323308
  C   8.85806006394415      2.53656650095766     -0.59745615939816
  N   9.71092331760929      3.36942577169370     -0.12667243867561
  C   7.83427986275439      2.94905582987879     -1.65393061492657
  O   6.54490563961112      2.40774750866974     -1.48825159867424
  C   5.88703624111806      2.77002608863183     -0.32460236432665
  O   6.16183712035991      3.78872083268694      0.25609799685782
  C   5.23947870612995     -1.17810221587252     -0.29848809519285
  N   5.21038532812563     -2.35585433027910     -0.84569406925375
  N   4.04390465549956     -0.41718636450753     -0.41795538174705
  H   6.74177590277285      1.32196631851830      1.48812476069454
  H   7.80501802867540     -1.93720260123165     -0.00095878648983
  H   8.23558696542260     -0.80675738911816      1.26901178751961
  H   7.71260586639217      0.23802889165470     -1.52623357379930
  H   9.26648809131606     -0.52678695669718     -1.15953715672202
  H   9.57737684502420      1.14777117703058      0.59159100404473
  H   9.49262284325290      4.30947250787519     -0.44018481539383
  H   8.17194631852540      2.59868421728010     -2.63122997505707
  H   7.80138223227464      4.03925252142528     -1.65940707540926
  H   6.06901735714556     -2.85603091443073     -0.63608074260675
  H   3.30930843200805     -0.90696065638743     -0.90485705212921
