24
Coordinates from ORCA-job 4965optt
  Br  1.68001389887064     -1.34816796971311      1.55310208911512
  C   3.28207453075467     -0.97251385121240      0.61475981501960
  C   3.97020693215155     -1.80018763970425     -0.20114613765002
  C   5.26095825154169     -1.20856030205883     -0.73957207014058
  C   6.11547613489469     -1.88529738050496     -1.53519864890831
  C   5.71158479130263     -3.27604483221548     -1.76918125826710
  C   5.56970823637323     -4.06475147080974     -0.66143088799911
  N   6.52275095054768     -4.27790050986551      0.32756872405875
  C   7.89087791132867     -4.24183171916937      0.21871807592242
  N   8.62233344543129     -3.81596283626388     -0.72793955807869
  C   4.19469782496214     -4.39762067179441     -0.28439271157821
  O   3.80858808846904     -5.44536037681348      0.26294448210135
  C   3.33833062288232     -3.19051208819727     -0.47062482830570
  O   2.11582102864812     -3.25722268432359     -0.57414060742549
  N   5.56958520567145      0.14134707580835     -0.46568642933072
  C   4.82321701258271      0.81000338238131      0.31005543235448
  N   3.70856735990638      0.31195824767402      0.91958275923541
  H   6.95837072321555     -1.35211647195104     -1.96274927152288
  H   4.95322139037107     -3.42586569449956     -2.53214333721634
  H   6.15271846522517     -4.76193655404801      1.13290924323114
  H   8.37298845559404     -4.65601574610647      1.10569759670572
  H   8.04771949174855     -3.45614773449481     -1.48845445298091
  H   5.04910240238344      1.84839805130846      0.53728884718169
  H   3.14608684514315      0.88030977657408      1.52703313447839
