30
Coordinates from ORCA-job 4969opt
  Br  2.11562813259146      0.01441436979037     -2.98263922749937
  C   2.68293249622472      0.39725203315989     -1.15019887299963
  C   3.48201803736997      1.49818708576561     -0.92004597478267
  C   3.42930394183846      2.71720452324801     -1.80352749898887
  C   2.04996458817602      3.42599348538886     -1.67530286387781
  C   1.48784461548942      3.53872433364008     -0.23874236462743
  C   0.44127687944590      2.45792308240466      0.10893034030590
  N   0.54853129707336      2.00994095798618      1.52037132858430
  C   0.18111198233029      0.66378921156173      1.74184769102142
  N   -1.01773862826218      0.23942501944884      1.77334930473668
  N   1.24564810711702     -0.23908308785826      1.93676684903596
  C   2.33177721093731      0.00248088426138      1.03081544475341
  C   3.36231265425363      0.80790025845391      1.40419053124363
  C   4.05193363983207      1.55948231918163      0.40375958999798
  C   5.10877012253442      2.43349516532749      0.78909214510524
  O   5.54123523569485      2.56492114576849      1.94894935812290
  N   2.11740086834724     -0.38445093528564     -0.25647973777021
  H   3.59362294126059      2.46965658565915     -2.85352586481817
  H   4.21030830026047      3.41745494515383     -1.51099425371661
  H   1.32821337498490      2.88807789575666     -2.29583812546275
  H   2.14630476909442      4.42448477824680     -2.11077630365206
  H   1.04001225127267      4.52455702179605     -0.09825496340337
  H   2.31679594903179      3.47857886029638      0.47015104657914
  H   -0.56375835410800      2.85206862436492     -0.05963890888443
  H   0.56547232754717      1.60379834695249     -0.55948424375713
  H   1.50593610085633      2.14345430440221      1.82002033900775
  H   -1.64880661766990      1.03508804808996      1.72201193562497
  H   0.87362412628927     -1.18107323925570      1.89273732887020
  H   3.55782491341287      1.01856158939612      2.44810585204234
  H   5.57349873677324      3.01969238689769     -0.02264988079131
