24
Coordinates from ORCA-job 4973optt
  Br  1.60709041407791      0.20896977613260      1.46707905190918
  C   3.23110909825981      0.09966639654123     -0.00569231399263
  C   3.82818190690266     -1.14685944142349     -0.03459749314118
  C   3.28375407883918     -2.52699832324004      0.10610957294880
  C   2.07548388871461     -2.84403165905515     -0.76773963393715
  C   1.51789539512129     -4.23897370464608     -0.46473497569488
  C   0.33790035333949     -4.56318403545448     -1.26390782934167
  N   -0.58694889595759     -4.81591393808402     -1.89303449052453
  C   4.58856482984148     -3.33216051746375     -0.19080754764431
  O   5.69037107398722     -2.45046702872694      0.04574994277807
  C   5.20906806438374     -1.17056595286596      0.03599572346264
  N   6.04004145368554     -0.16994334499959      0.12231696708494
  C   5.47049012760271      1.06298361421624      0.13477903856828
  O   6.03816849551959      2.11575957446536      0.20776366358744
  O   4.04486456613171      1.15369431904891      0.02059846354657
  C   4.66930492688608     -3.76498740047558     -1.63815798287793
  O   4.30992056302203     -4.84182493106180     -2.03145839370325
  H   2.99043220153065     -2.70064423595051      1.15081224755470
  H   2.32754058865784     -2.76297734944762     -1.82725127460385
  H   1.31519360081364     -2.08894480198424     -0.56047333875305
  H   1.23779484557840     -4.30115625174030      0.58931309842948
  H   2.27234030221139     -5.00490239140123     -0.65882217060866
  H   4.70460678883700     -4.20949378242891      0.44451622340321
  H   5.09083133201351     -3.00604458995458     -2.32435654845022
