24
Coordinates from ORCA-job 4974optt
  Br  2.40365433307544      1.69395923591253     -0.57497310995110
  C   4.01543733219516      0.79315056299326     -0.15837446411176
  C   5.20319583606770      1.41656203210156      0.00839189566539
  C   6.26710881723373      0.51106457046028      0.27745100488209
  C   6.28213124298813     -0.85473648321844      0.00708700031458
  C   7.59716594255200     -1.22634253092388     -0.45396165626437
  C   8.05857918571809     -0.05978168009210     -1.11352080255419
  N   9.13073375981994      0.72715346059775     -0.97297872419894
  C   8.85253949913038      2.03120250979032     -1.11856134746031
  O   7.53898682241024      2.41060418072690     -1.44192877438682
  C   6.74621952792178      3.23233714903437     -0.69041473898530
  C   5.58963916089782      2.83257168004844     -0.13272835489583
  C   9.80497273396307      3.05850601334417     -0.92315493419885
  O   9.56624757702704      4.27653997108927     -0.99045226936896
  C   4.98640276796696     -1.51267106836859     -0.05010402823842
  O   4.71774185675357     -2.69998921831107     -0.09822817232435
  N   3.91931643552388     -0.57715536501789     -0.06772763918839
  H   7.17532206688963      0.96641051282695      0.64036616881905
  H   8.19070545996136     -2.06285233853615     -0.11283539453835
  H   7.25945251477573      0.38088670421487     -1.69622598719171
  H   7.07052805854746      4.26679621285189     -0.66518703174856
  H   4.95240393262918      3.60542626007268      0.28062393253772
  H   10.81054725644131      2.68004725481783     -0.67918054267654
  H   3.01596787951025     -1.00668962641497     -0.20138202993607
