30
Coordinates from ORCA-job 4980opt
  Br  3.42128092162335     -0.69248582232808     -1.84761922806295
  C   2.86053671489013      0.45076696163066     -0.41507370236332
  C   3.07997540327857      1.85834193504318     -0.51358369523590
  C   2.97826695946235      2.57257906162173     -1.83109796371563
  C   1.52155118135303      2.65857378818519     -2.34746928133340
  C   0.54325071842590      3.35696960944219     -1.38597300952374
  C   -0.13829267568040      2.39151942817246     -0.41176012333877
  N   -0.94246502091849      3.04405831536801      0.62521273691835
  C   -0.65989452590179      3.70736762963895      1.77462165740208
  O   -1.56431232815564      4.26270394112381      2.38602991817222
  C   0.76393094541831      3.88108671790478      2.33652774815031
  O   1.47420553808997      2.71974911617479      2.70687718888458
  C   2.11700941415740      2.05752580464943      1.68511941847069
  N   1.95682708928213      0.69303223801496      1.76006566306799
  C   2.35067175404693     -0.20669901289215      0.71644380317159
  O   2.15785767896197     -1.41023636523584      0.92036950993346
  C   2.75722207835051      2.62937792731671      0.64250113994622
  H   3.57870420319686      2.07719609784607     -2.59792858387789
  H   3.36510944261209      3.59236875919432     -1.72069858978607
  H   1.17266956983804      1.63908305206412     -2.54487179503250
  H   1.51831287132434      3.18419721379488     -3.30806344954094
  H   -0.23819067898694      3.87394071170262     -1.95163184612255
  H   1.07286554445209      4.12671424714485     -0.81773857248956
  H   0.57494928211990      1.70609943700049      0.02772241892944
  H   -0.83897073895638      1.76942364003174     -0.97217506404415
  H   -1.93243564494688      3.10354782530200      0.43669291473175
  H   0.61120070240758      4.44509580841253      3.25290850936268
  H   1.34051864809926      4.49844783332206      1.64397685652982
  H   1.32879637533213      0.30832798718336      2.44773389782929
  H   2.87384857682356      3.70432611316991      0.60388152296688
