26
Coordinates from ORCA-job 4984optt
  Br  2.36038917101682     -1.31625899055834      2.94460212828268
  C   2.98946414941354     -0.56083076328745      1.32076785516346
  C   2.49360268419099      0.66134354696152      0.94625595649068
  C   1.57406801615827      1.59304727249445      1.60310712651169
  C   0.48409031507352      1.92482536124848      0.87803512421430
  C   0.49332587051635      3.27250604751205      0.32560665561613
  C   1.64170432613269      3.50426541862886     -0.36060942303073
  N   1.84268037158492      4.76251419457594     -0.99944118217551
  C   2.04907129254022      4.93579387566190     -2.33064062449880
  O   2.08267196857597      6.01473474401627     -2.87727606611043
  N   2.68928031210152      2.63467895276934     -0.60594854367986
  C   2.97698482380213      1.26808472827514     -0.26660426608360
  C   3.90006225545648      0.61549852188001     -1.05171460177734
  C   4.40632212240368     -0.68135849970879     -0.72590129780727
  N   5.24478302686166     -1.36882630226471     -1.45110297756207
  C   3.94452029136548     -1.31677038805352      0.55703576790574
  N   4.38267807471879     -2.47170137557365      0.94531521224385
  H   2.02548031172856      2.35826923556669      2.23294220111429
  H   -0.02374031235743      1.14508365445101      0.31360980641563
  H   -0.33626481175359      3.96079099148818      0.21475938385580
  H   1.57101535666675      5.58821632787983     -0.48635154625443
  H   2.19031831585571      3.98462123553696     -2.86727435882380
  H   3.48687152500951      3.08886870914100     -1.01993835916416
  H   4.25287993306818      1.08115313763092     -1.96771918516891
  H   5.48574765889437     -0.84052991117394     -2.28770164710063
  H   5.04199295097486     -2.78901972509818      0.23218686142328
