25
Coordinates from ORCA-job 4986optt
  Br  0.17593527485239      0.77292964337616     -0.24488559270697
  C   2.60830920241260      0.09327071484436     -0.30865000375510
  C   3.40317064932550      1.14189900200167     -0.13609327573075
  C   2.99840814618720      2.59581424107504     -0.07701121366815
  C   4.32097501860618      3.35163100434142     -0.21035074933611
  C   5.32649495665558      2.39376237286832      0.44784041627510
  C   6.70082735031764      2.58115989908393     -0.03568388464109
  N   7.77461893982817      2.75302945658522     -0.39694001580080
  N   4.79463148062373      1.08556330572543      0.10626715432391
  C   5.42332117344699     -0.07747472310020      0.45778569717170
  C   4.85786541923634     -1.28505349888081      0.34171414385413
  C   5.48497653977954     -2.58107262025052      0.78295971738447
  C   6.72392054898440     -2.38886454813329      1.53017856180638
  N   7.69073932596745     -2.20698598019170      2.11895491978168
  S   3.25291477163074     -1.47650832066804     -0.37835740212500
  O   3.44604554958656     -1.89104562074162     -1.75065876891495
  O   2.55046282441291     -2.40152371987266      0.48155625881683
  H   2.51615091236038      2.78862137752127      0.88444409198696
  H   2.27275074339003      2.83214823968070     -0.84998362932197
  H   4.32912056321596      4.32861645137560      0.26791939481767
  H   4.58955860934315      3.47066913473827     -1.26014515282376
  H   5.34151764433987      2.54224621591229      1.53530682285566
  H   6.42773324162950      0.03392837050764      0.85652057176726
  H   5.68896934040673     -3.22294633821389     -0.07835700357302
  H   4.77358177346029     -3.11781405958464      1.41566894155590
