27
Coordinates from ORCA-job 4987optt
  Br  1.05210050437110      0.20850930190811      0.46931184707523
  C   2.91814466047970      0.31065854748642      0.00606402738981
  C   3.59665994456134     -0.85419445136846     -0.44119261706015
  C   2.73964817118470     -2.02587569951404     -0.88258228249378
  C   2.32316934306767     -3.04392426421541      0.19338933148044
  C   3.38571262480844     -4.07584815592175      0.59613425158544
  C   4.65388223373175     -3.39500744830182      1.05893658719143
  N   4.81491624557268     -2.89851829905144      2.21466708012872
  N   5.71916260683174     -3.28646102967915      0.15237101552819
  C   5.59570489098773     -3.38678703287660     -1.27975722731294
  C   5.89961412500122     -2.07002168690601     -0.64603256065655
  C   5.01160755162400     -0.85702731642418     -0.50925501170028
  N   5.79799558583011      0.20136602980869     -0.36877993417303
  S   5.17975279605361      1.73226683168245     -0.24307020971110
  C   3.46465421237317      1.59539011138335      0.22091804649917
  N   2.83987238024921      2.64035613803295      0.65420260712835
  H   3.19599935118577     -2.53509909371356     -1.72800392869368
  H   1.81839394740733     -1.60403160637109     -1.28233705028336
  H   1.44075422773445     -3.58546114200216     -0.16067512696371
  H   2.01592395835360     -2.49009074981546      1.08266722003814
  H   3.59739759664003     -4.75270802008499     -0.23362268561371
  H   3.00018609039041     -4.68220372728363      1.41829037980676
  H   3.96853869763587     -3.02596663143237      2.76660958354625
  H   4.63331386006844     -3.56066697141865     -1.72947717149353
  H   6.41016405775988     -3.92253135728070     -1.75643383073866
  H   6.93076121102844     -1.74570845312793     -0.68871395321537
  H   3.47896912506751      3.43058617648746      0.71837161271191
