27
Coordinates from ORCA-job 4995optt
  Br  6.44636418871568      0.50326728566425     -1.06178039445282
  C   5.38283010292558     -0.15787137985538      0.36533930180908
  C   4.94772427200798     -1.48921475561951      0.41010461792922
  C   5.05421251956030     -2.65263017595839     -0.37691060167282
  C   4.37660876761635     -3.67626018283148      0.29092959325950
  C   4.23714528019611     -5.07834816664092     -0.20230897022011
  C   2.85556174932861     -5.45702205433545     -0.71634507239236
  N   1.80825765451703     -4.74090436843276     -0.70767961870090
  N   2.78562546707534     -6.75278686873290     -1.20310038674889
  C   1.58639032856186     -7.14074864598214     -1.91578082852352
  C   1.72396927630333     -8.48399001473627     -2.47583293151373
  C   1.85297337043374     -9.57852031149402     -2.94657007151079
  C   3.82608554392638     -3.17223050081773      1.50604849849126
  C   4.18144966344595     -1.83645169482436      1.56561681665681
  O   3.87715480889342     -0.95868236688647      2.55945694884230
  N   4.30638213910720      0.36889542607368      2.46931106686876
  C   5.02161418258390      0.68531271852997      1.40660585943429
  H   5.57270436466670     -2.73483915636288     -1.32129596410773
  H   4.48458598309506     -5.80360416820582      0.58197146459663
  H   4.94945081291564     -5.25147928576764     -1.01663524607265
  H   2.02910064534227     -3.84178932915471     -0.27936530139854
  H   3.64769087019549     -7.15139996904667     -1.53867158532146
  H   1.35043243256894     -6.42810715305440     -2.71462057816270
  H   0.74038753407237     -7.10690792835056     -1.22673782882464
  H   1.96235184842357    -10.55109354290423     -3.36146443707276
  H   3.25219907437204     -3.72381397361566      2.23576961006910
  H   5.32674711914907      1.72522056334252      1.40594603873952
