26
Coordinates from ORCA-job 4996optt
  Br  0.92581633577383     -1.29598053384347      0.69745345921751
  C   3.23528957700775     -0.41897061592107      0.04149234772517
  C   3.81933099570860      0.82522397710115     -0.06019705877539
  C   3.31452376801919      2.12357802180220     -0.28608722583764
  C   1.87449881557397      2.50019501818090     -0.43774584316954
  C   1.69628362323111      3.77849979913739     -1.26156245339721
  C   2.02032953386283      3.60279265787185     -2.67767930409732
  N   2.24060656451509      3.48102573835965     -3.79646976153762
  N   4.30340217901493      3.01142876990144     -0.29286503366475
  C   5.47492237921560      2.33860754400600     -0.07994382694842
  C   6.76741360686642      3.10261518449294     -0.10970762518081
  C   7.76771127844082      2.59760831181430      0.83368115633126
  N   8.56127263200860      2.19742224643253      1.55910724806185
  C   5.25487185062343      0.98286847534601      0.07635278752840
  C   6.04055700274304     -0.17936815744513      0.31987583294265
  C   5.40908631689479     -1.37219902288220      0.41752728269911
  N   4.03305408384317     -1.45937396053082      0.27659569525709
  H   1.42843983285837      2.67562998651827      0.54557716573837
  H   1.32309491030678      1.66705612460186     -0.87613149359082
  H   2.35585626798429      4.55286250169193     -0.86761657988615
  H   0.66622104593422      4.13371988913363     -1.20413069596035
  H   6.56096588301267      4.14497569389615      0.13855735858336
  H   7.22748384282619      3.09540848598537     -1.10363828180884
  H   7.11394663095407     -0.13291010077105      0.44672289292592
  H   5.91899161131761     -2.30437485542830      0.61164056163603
  H   3.57202943146245     -2.35134117945158      0.40219139520814
