23
Coordinates from ORCA-job 4998optt
  Br  2.69263049278222     -1.51648108943964      2.67088829060053
  C   3.34787560226543     -0.65719329725405      1.11489582226834
  C   3.11010976226138      0.68119844641701      0.93608293421140
  C   2.40051772464258      1.65821081699485      1.75449210569977
  C   1.45147177727934      2.32112315262080      1.06048107193147
  C   0.55146498377231      1.63277041066660      0.05621138240681
  C   -0.77497976293671      2.25524282377436      0.04176570539347
  N   -1.79293395887103      2.78355131053954      0.03450382013108
  N   1.76834588173760      3.65991567093366      0.80223795433498
  C   2.93904848241900      3.69932483825314      0.01011150397013
  N   3.67149715641149      2.74794874905920     -0.40032713227582
  C   3.66046025727850      1.33595628388708     -0.23825117114324
  N   4.29487185353279      0.68481488277384     -1.17546762721590
  C   4.43914851099453     -0.68739466667428     -1.10529272888630
  N   4.93046489690248     -1.36126303427438     -2.08865400789848
  C   4.04412403294663     -1.45749102343464      0.14179045754795
  O   4.28696963282592     -2.64966895823819      0.28161987252743
  H   2.95017503463216      2.20841812787653      2.51358387318459
  H   0.45413383182493      0.57675196707091      0.30939443620498
  H   0.96416068408591      1.70475492764397     -0.95701276943452
  H   1.05309275765954      4.34164308301196      0.57978983100797
  H   3.22171941201572      4.71712016540579     -0.26123415786501
  H   5.14563095353727     -0.68725358761408     -2.82560946670163
