26
Coordinates from ORCA-job 4999optt
  Br  2.14879613434704      0.61343100322189     -3.35435699389696
  C   2.71676944902346      0.47862808331276     -1.52984383226065
  C   3.46966240557748      1.48190943746643     -0.90127380932139
  C   3.48558064977616      2.91947008702434     -1.34660504870017
  C   2.54194943293396      3.74484133144791     -0.44489493313723
  C   1.02979175694970      3.49164954127858     -0.57030078497296
  C   0.36498551529253      2.24294512841304     -0.00162610439531
  N   -0.72843840214769      1.86727052812990     -0.53249872735196
  N   0.97348953266833      1.65694726865653      1.10271811990569
  C   0.58031382896762      0.37302953218562      1.58207025381231
  N   1.23927109534506     -0.69263239961969      1.39648161659296
  C   2.32091372813113     -0.44288137617821      0.49016841462927
  N   1.98316223956641     -0.35909253840861     -0.75847715546061
  C   3.55561046686813      0.10326827884811      0.96226333073216
  N   3.95929214746246      1.26047591294914      0.30521182920030
  C   4.06972537484538     -0.18055497079875      2.24177131495190
  N   4.49860733516348     -0.43590469236688      3.28700718350576
  H   3.18712821566188      3.01644636572678     -2.39015888132038
  H   4.49340839379957      3.32503199757525     -1.23777747977846
  H   2.69219929035691      4.80105390767536     -0.68593468332221
  H   2.87280106107185      3.62638018167097      0.59035536490220
  H   0.73343916115627      3.51549385277937     -1.61969246197474
  H   0.51914955423607      4.33033573512509     -0.08659964250537
  H   -1.08495356943552      1.01433935984471     -0.10520514770653
  H   1.97594156165604      1.80492879585987      1.14442032284690
  H   -0.33459635927378      0.34918964818039      2.16977793502549
