25
Coordinates from ORCA-job 5001optt
  Br  0.99837915911085     -0.30215433122529      0.93572590987372
  C   2.85675554178293     -0.21803232952402      0.43242103193803
  C   3.55906805210646      1.00006235880613      0.63233655730168
  C   3.05190430563114      2.20603795542555      1.34028211637172
  C   2.94423275954148      3.42844162702040      0.42416567393060
  C   2.10411412356057      3.13913466760073     -0.83716960881479
  C   2.83107863279537      2.45481134809329     -1.90553021313371
  N   3.37724479423037      1.98743706413220     -2.79965713171724
  N   4.21017825024264      4.02150850902178      0.05041481454788
  C   5.30453167604435      3.40094138673785     -0.01145287646687
  O   5.68609496567685      2.12793516892810      0.20132460862437
  C   4.88048812620109      0.98378113870063      0.12458879724475
  C   5.48182021684995     -0.10269434065448     -0.42958932540179
  C   4.76216632187771     -1.33706680423100     -0.54186071510979
  C   3.39321591770120     -1.33860414282394     -0.12466655786740
  C   5.35959032282941     -2.47693100131551     -1.09108443104450
  N   5.86462466890248     -3.41622313963558     -1.55568424716191
  H   3.70628947561576      2.49125999140282      2.17574415132513
  H   2.06825652879435      2.00774169502425      1.76612885979929
  H   2.39877417628846      4.21186633642670      0.96136888478584
  H   1.75021796054276      4.08362587664811     -1.25520278115329
  H   1.23822893358577      2.53181621934781     -0.56303549791310
  H   6.19748611407795      3.97555743552731     -0.24986613825561
  H   6.49190144122465     -0.01500355551423     -0.80407048854885
  H   2.78935753478537     -2.22324913391965     -0.26663139315417
