25
Coordinates from ORCA-job 5003optt
  Br  1.21565032677122     -0.64857962622720      0.37353472703964
  C   3.07907086883617     -0.41806030023815      0.20109817680509
  C   3.63225172549374      0.82409376595698     -0.14011245133593
  C   3.13987096559533      2.13505171927969     -0.44440708871703
  C   1.72211304140349      2.61091137095555     -0.50894830817690
  C   1.61334326880835      4.08572069588454     -0.90476823336445
  C   1.90871955693933      4.33885787276780     -2.31532522969061
  N   2.08413526179254      4.55841398071908     -3.42685035623682
  N   4.12751651793643      2.97564964107764     -0.67813081262030
  N   5.26544310110222      2.27271120167663     -0.54087138155367
  C   5.03138236793903      0.96768678047786     -0.22468243347099
  C   5.89799866361621     -0.10383896669893      0.01541172163868
  N   5.27383593236324     -1.30466532049698      0.32599659546099
  C   3.91237950229429     -1.56185405001894      0.45590479195526
  N   3.44190817123744     -2.72679457184510      0.77806259302190
  C   7.30421859841982     -0.08724045108722     -0.01187940860757
  O   8.01722067819519     -1.08074829290044      0.22503826799997
  H   1.24707834820518      2.48238073465270      0.46585401217645
  H   1.14931746893494      1.99322249658786     -1.20236974005072
  H   2.30217267624039      4.68436390564764     -0.30827461418351
  H   0.59873787581394      4.44372863957916     -0.72302715014178
  H   6.14408102287820      2.71534917650248     -0.73140364145789
  H   5.91908706700317     -2.06346978422484      0.49811297784802
  H   4.20373547800921     -3.38663608319996      0.91415751574350
  H   7.76573151417086      0.88574546517213     -0.26012053008134
