24
Coordinates from ORCA-job 5004optt
  Br  0.89021688746932      0.16965202991829     -1.06345749009669
  C   2.85572802598847     -0.04298634782918      0.18735966747052
  C   3.48059486496853     -1.27625390860574      0.09549126556756
  C   3.09620071678652     -2.66251202163686      0.12423610500549
  C   4.23904112344819     -3.35788506811531      0.00463868826299
  C   4.57545861030551     -4.80821017705349     -0.04148834607973
  C   3.39316970972838     -5.65865207795547      0.06879887817319
  N   2.48264295241413     -6.34809036037141      0.15520451432243
  O   5.34270510971186     -2.53582887330681     -0.10761743191981
  C   4.87305490951602     -1.25566528870164     -0.07162398913980
  N   5.67179286385572     -0.23958277550407     -0.20369997812025
  C   5.06329225471824      0.98465607596449     -0.15847134517462
  N   5.64710811787644      2.12053406782990     -0.31664942674486
  N   3.65937065985363      1.03558366764008      0.10123794814524
  C   3.09226971950694      2.36592394555701      0.22398961467545
  C   3.10891811495503      3.10256040914652     -1.09995532806218
  O   2.83242552308221      4.26642179951041     -1.19717862360035
  H   2.10234472694485     -3.07063651155154      0.21073380403126
  H   5.26079672262333     -5.06913689639536      0.77064000570668
  H   5.08743505177642     -5.05237333282704     -0.97714338504184
  H   6.63223814448933      1.94463540579592     -0.48667947277904
  H   3.65913753810687      2.95264431562584      0.94608219630721
  H   2.05654786160530      2.26196701991533      0.54350727368599
  H   3.35650979026865      2.48323490295011     -1.97995514459485
