29
Coordinates from ORCA-job 5005optt
  Br  1.82691918649080      0.21944947705462     -2.25325729108574
  C   3.26500522342867      0.09898837695551     -0.93720092190898
  C   3.91079290551214     -1.14380871209387     -0.68327661706357
  C   3.15420299974532     -2.42141549696506     -0.87496039880262
  C   2.53657994832031     -3.08679916069273      0.37140168146946
  C   3.41711647848536     -4.00503737286152      1.23447046778081
  C   4.67322851359264     -3.31100566026354      1.67667582280846
  N   4.90942434073787     -2.74018471458429      2.77926337397869
  O   5.56741415868030     -3.30543523059804      0.67145920139729
  C   6.13069115536748     -2.02670115072879      0.31077578005561
  C   5.10279142771385     -0.95812331788428      0.13251345510273
  C   5.35778049106739      0.26877973225639      0.69790541052102
  N   4.65903668279036      1.40374827978105      0.51171969567817
  C   3.64588068974865      1.29007231922278     -0.38933261529890
  O   3.88485161278439     -3.47322353041720     -1.57960336223977
  C   4.28803315444300     -3.17049078226478     -2.81647067922739
  N   4.98640706064504     -3.93209398842320     -3.54519664767292
  H   2.29970175485087     -2.17389735824486     -1.50562303728250
  H   1.67724370453128     -3.68087935693736      0.04591946750515
  H   2.14925648978390     -2.27290799899862      0.98937548411684
  H   3.70063516441824     -4.88022707994928      0.64861943298673
  H   2.84157385216468     -4.33195200076454      2.10307524538229
  H   4.10538262826158     -2.83212787873692      3.39522624370606
  H   6.64286725983441     -2.25323682046782     -0.62812581129447
  H   6.86066772993204     -1.72151188484038      1.06261239999589
  H   6.22291744319110      0.35395500029710      1.35323995148083
  H   3.13903822199226      2.20421021106828     -0.67745499228633
  H   3.96005513313749     -2.19760267796102     -3.18267584314717
  H   5.21350458834846     -4.78054122195759     -3.02407489665565
