28
Coordinates from ORCA-job 5006optt
  Br  0.80547291773926     -0.27648457489324      0.76109732267796
  C   2.76375908551214     -0.18670178961894      0.59879346114885
  C   3.48275550743535     -1.35322228572118      0.63822193687309
  C   2.90893951669404     -2.73072301071971      0.75048482957690
  C   3.24914549567849     -3.60167406477396     -0.46614149527937
  C   2.21230768680176     -4.70562623342981     -0.68022052454288
  C   2.03595212067652     -5.56077827082289      0.49543656765489
  N   1.87028431621431     -6.23636205419477      1.40665413875853
  O   4.48827051768967     -4.28334628266537     -0.35551325029752
  C   5.66875680854590     -3.50707334009402     -0.48656091018656
  C   5.81886676941861     -2.40951734016551      0.58746503825365
  C   4.91423849546872     -1.22977011665058      0.46755908918319
  C   5.40466721583442      0.08387483832119      0.28099858467108
  C   4.55840550906136      1.15628278290912      0.27357237907299
  N   3.19159917403988      1.06056945248158      0.44655979649773
  C   5.80468796528163     -2.95346223011245     -1.84481395373807
  C   5.94652394316368     -2.50142655918479     -2.94622192609881
  H   1.82672326493607     -2.67852990085522      0.85785098904831
  H   3.29133392212751     -3.25615892629484      1.63363067341345
  H   3.25304588146873     -2.97606285812707     -1.36660792791962
  H   2.51610332730922     -5.33588345602290     -1.51702152959705
  H   1.24785109462200     -4.25256190585965     -0.91463061115496
  H   6.46750978264615     -4.24169242214138     -0.34356618162423
  H   6.85578336437046     -2.06531374146218      0.53243369182239
  H   5.71395931177517     -2.94020944296756      1.54737022658683
  H   6.46845853047755      0.24886343790942      0.13664181381745
  H   4.93943371882466      2.16070170148636      0.12462555134494
  H   6.06016475618661     -2.07271140632960     -3.91209777996317
