29
Coordinates from ORCA-job 5007optt
  Br  1.06468957011882     -1.02206650489125     -2.15866081545462
  C   3.12433689629588     -0.05346861233684     -1.15102674329565
  C   3.27549051262944      1.28268335553550     -1.18080447468211
  C   2.74927033624233      2.12210865629425     -2.31114380109838
  C   1.33334235209295      2.66261311647480     -2.03703643331400
  C   1.16499235443879      3.42911981932435     -0.72044115272562
  C   1.10099704656751      2.56694784528846      0.52479094169767
  N   0.55671597562353      1.44546027643679      0.68500048111312
  O   1.71972667060235      3.19961742514638      1.56899429916249
  C   2.11832309492360      2.40866388693027      2.68287693099116
  C   3.57624943183467      1.95576117439252      2.52073978606733
  C   3.74485676774845      1.19952704762830      1.23413178410972
  C   3.88906978822219      1.95304622192403     -0.03648114455410
  N   4.40516116176682      3.12559739274584     -0.14911488918398
  C   3.54970163542085     -0.11777598434366      1.11828165391905
  Br  3.30109774694794     -1.28893131102015      2.59522895258824
  O   3.44054351938596     -0.78199872032811     -0.03598130836661
  H   2.70864181792259      1.51653251074877     -3.21697137823085
  H   3.43364826251822      2.95684364914039     -2.47502335427312
  H   0.63073714352657      1.82783003280683     -2.08309014707781
  H   1.06397078913269      3.33793971810660     -2.85397861268268
  H   0.22756129993542      3.99369650324709     -0.75059247309475
  H   1.97618042653056      4.14535533882864     -0.59035745776305
  H   0.20931162504416      1.05012385240365     -0.18643912106016
  H   1.46227500321189      1.54432476695911      2.77823463226865
  H   2.01757963660598      3.04559356775340      3.56292190332494
  H   3.84155143868405      1.33616397539060      3.37789063637825
  H   4.22723805880110      2.83148303941765      2.54087387272277
  H   4.74573963722460      3.46320795999572      0.74717743251411
