30
Coordinates from ORCA-job 5010optt
  Br  1.35203065749145     -0.74289929379752     -2.18839725277375
  C   2.51840620435679      0.02740303436035     -0.85991387710564
  C   2.93594187172562      1.29595109655909     -1.03845199207599
  C   2.66599252099378      2.13880545771140     -2.25938171482428
  C   1.27965884018947      2.79428181125592     -2.33415536301463
  C   0.85829654228913      3.51104077138545     -1.05263203121264
  C   0.29426098577160      2.58942961744894      0.00883070513675
  N   -0.51889789587531      1.63773259950483     -0.14612306229610
  O   0.72964544935209      2.94960948237443      1.23573569513293
  C   0.56611814417751      1.97237322208319      2.27115732840944
  O   1.45836651750752      0.94608221552294      2.14549720835342
  C   2.84045364218301      1.25331056119932      2.52231434728840
  C   3.88318372118012      1.00331030425479      1.49708731366744
  S   3.94596270840973      2.13550712158027      0.15979021130466
  C   4.10054637571790     -0.30501728002217      0.96673488952127
  C   2.97508852913329     -0.91524185752080      0.20565875327621
  N   2.50385088612885     -2.09836019868994      0.26814689958252
  H   2.80843183035628      1.53067741251518     -3.15559766801168
  H   3.41863853762969      2.93268100592645     -2.27778300285636
  H   0.53790831353969      2.04047850767262     -2.60216895115006
  H   1.29810603054650      3.51455218067045     -3.15606617227496
  H   0.08066888623420      4.24667940405742     -1.27826872260248
  H   1.70333187139957      4.04591212470627     -0.61774241718431
  H   -0.71761730066062      1.47676801548398     -1.12807809678876
  H   0.71496683031254      2.54684107295461      3.19152722940100
  H   -0.43836285777881      1.55795106761065      2.21581551752051
  H   3.04363178076233      0.61081718164547      3.38397943780976
  H   2.86903292322668      2.30024936507178      2.84167230235053
  H   5.01904070422894     -0.40277289147857      0.38012338760669
  H   2.98131674947043     -2.57415311204683      1.03368909781013
