23
Coordinates from ORCA-job 5011optt
  Br  1.68502095605188     -0.37765991982142     -1.28272050018933
  C   2.47043819695574      0.36155666892135      0.32740319509232
  C   3.49762718165039      1.34789072928885      0.15007029878938
  C   3.06012057149844      2.50976430198740     -0.48739718283736
  C   2.51352430350694      3.55828610025887     -0.79815240000536
  C   1.57650026787564      4.52186685053302     -0.18430464427998
  C   0.67741853752371      3.83891001420450      0.83215479426888
  N   -0.58429942850003      3.94382765858591      0.75153886783877
  O   1.37143202976102      3.14564494710611      1.76770241000354
  C   0.64268194522985      2.25256744693106      2.59364125142577
  O   1.51577512200444      1.49969279558668      3.37368333925279
  C   2.37882671116054      0.64676533896872      2.68704576306035
  S   4.07614768267977      0.95141975882016      2.83920720965915
  C   4.50657440140565      1.56273540876638      1.16365069630952
  N   5.60239991646515      2.19025507960465      0.99709186728088
  C   1.91176189214126     -0.02015678769215      1.49677279342826
  H   0.91647245339418      5.02254717969897     -0.89122004957155
  H   2.15315873830711      5.29620129714526      0.33276373398215
  H   -1.07140972412667      3.43964932028022      1.48747044086115
  H   0.02944182078848      1.61606662885016      1.94735437143340
  H   0.02094288903620      2.81011868217995      3.29856720836236
  H   6.07380287058896      2.36418403917055      1.88182524061070
  H   1.06864066460129     -0.70113353937526      1.52785129522418
