23
Coordinates from ORCA-job 5020optt
  Br  1.06133091405541     -0.22078895425991     -0.06700327829408
  C   2.93603345314060     -0.05225220315323     -0.06750785186694
  C   3.60611942150832      1.13765760803154     -0.06772393892601
  C   3.16272841922572      2.49497089841464     -0.06787025268053
  C   4.28486989013046      3.29111300029393     -0.06804318433107
  C   5.46963483567378      2.50169291062125     -0.06797407166576
  C   6.79857344998662      3.04739359551937     -0.06796903485418
  O   7.05949705535853      4.24857409234500     -0.06816392222228
  C   5.05789973917252      1.13840268761363     -0.06780292918396
  C   5.76211732072149     -0.08746782146593     -0.06772134984905
  C   5.01051899188248     -1.30530528809391     -0.06746766900521
  N   3.63258529945931     -1.24142211056407     -0.06727334907230
  C   5.67071488217842     -2.52380401180824     -0.06740946644491
  C   7.07701749170262     -2.53897765248543     -0.06763737029395
  C   7.69842340628841     -1.31340418500545     -0.06790911310746
  Br  9.62854394353705     -1.28663543744470     -0.06843089722441
  N   7.11581495695858     -0.13592273077825     -0.06793383457183
  H   2.13133701589339      2.81287654468331     -0.06786428722684
  H   4.30219411126863      4.37179709372693     -0.06817643658440
  H   7.61515515822761      2.30945313544010     -0.06780052647312
  H   3.11384406709130     -2.10333351514931     -0.06751790171314
  H   5.10639840480500     -3.44920737169689     -0.06717540695628
  H   7.64164777173371     -3.45841028478438     -0.06762392745230
