23
Coordinates from ORCA-job 5022optt
  Br  1.31630754514107     -0.41984282926423     -0.62074401131964
  C   2.98039448825227     -0.09334048869750      0.33018836211681
  C   3.66901252254491      1.13178356015941      0.19305819052383
  C   5.12307467242306      1.16246314876180      0.20065049733822
  C   5.54770960591589      2.47317030690215      0.07667017802189
  C   4.39762662387026      3.28471745463577      0.00046915437786
  C   4.41812501312558      4.72059047145715     -0.12019970748313
  O   5.41214984380322      5.42833018392366     -0.13027911966457
  C   3.23660124071139      2.45499457417180      0.05276442471879
  C   1.80970899977688      2.91905198018180      0.08279240541030
  C   1.17716747175330      2.63137744929363      1.42120154231887
  C   1.31636417824534      3.57516380684504      2.52570751679711
  O   0.09000746851333      3.46235955397455      1.81524048564189
  N   5.96870219420307      0.07701702172231      0.20619232025680
  N   5.60374226597256     -1.09096910164646      0.37387930352985
  S   3.91007600891103     -1.49301661063063      0.68738586316611
  H   6.56998182793159      2.81364916562264      0.02650206335288
  H   3.42569604774188      5.20405559967545     -0.21370565985496
  H   1.22186350774243      2.42984388015241     -0.69717906000198
  H   1.74376004177963      3.99376739935057     -0.08911288133942
  H   1.04534929149677      1.58048794419582      1.66270733260167
  H   1.86685580837846      4.49517087479008      2.35443494020206
  H   1.28972333176585      3.22117465442261      3.55037585928872
