29
Coordinates from ORCA-job 5023optt
  Br  0.96240513439358      0.05623666323138      0.15394868124173
  C   2.88570906797829      0.12871678861695      0.03374170248572
  C   3.55969436741432     -1.06976943784361      0.06396191358028
  C   2.85613516585446     -2.40375195096093      0.01570489141451
  C   3.73628339733938     -3.48085761871357     -0.60750000485253
  C   5.05013109176659     -3.59779037525958      0.14675318947286
  C   5.77163991294700     -2.26370927205360      0.26769231422511
  O   7.00096162405256     -2.26948605376322      0.44860679367806
  C   4.98931828559955     -1.06251884446780      0.18337662582874
  C   5.64291119319843      0.19781129748622      0.28896838593028
  C   4.94691043900734      1.36475423038527      0.23500081685435
  C   3.53364641527112      1.39844322904918      0.06545341316991
  C   2.93044424809893      2.69282878387334     -0.08841741339400
  N   3.44088200945872      3.81625853134118      0.28726472393898
  C   2.58426051677368      4.86827750281826     -0.23751783252063
  C   1.30240360585758      4.12818864629231     -0.63154789646473
  O   1.73517316646522      2.78094809747832     -0.77035207621705
  H   1.92509210112412     -2.31429773553199     -0.54077274353169
  H   2.58000051575935     -2.70678808584688      1.03377371432464
  H   3.94047057211403     -3.21282199011915     -1.64863877988262
  H   3.20306249978719     -4.43546778169410     -0.61704454970739
  H   5.73938563917791     -4.29745881413118     -0.32972389646340
  H   4.86426456705603     -3.97570203096749      1.15980970886610
  H   6.71815447422567      0.19326270542221      0.40891621851324
  H   5.45378359260177      2.31884290954644      0.29931688290662
  H   3.05823162901862      5.34974350771734     -1.10276639434347
  H   2.40447353001793      5.64256717095973      0.51088550610582
  H   0.86327555631746      4.45230674397164     -1.57434309665241
  H   0.54489568132313      4.17723318316329      0.15744920149298
