25
Coordinates from ORCA-job 5025optt
  Br  1.37793888793343      0.29819369420332     -0.05328598233906
  C   3.28037196316378      0.00064384300167     -0.01032949861529
  C   3.77589390170352     -1.26932147431645      0.04407810065180
  C   2.90083868776000     -2.49478713896529      0.06137400837104
  C   3.62880873296304     -3.70550719423409     -0.50776023459159
  C   4.92575022167580     -3.93342987828736      0.24993399323424
  C   5.81903940723560     -2.70110532188507      0.27296583489583
  O   7.03627021587239     -2.85057214288890      0.43466457776012
  C   5.20129858238822     -1.41586011764219      0.11938572558977
  C   5.98145602725759     -0.20284415116441      0.08657504617671
  C   7.40424765484635     -0.14593625685371      0.09600420896603
  N   8.54298687132897      0.02685098665881      0.08237686850212
  C   5.29197453742357      1.00529240640829      0.02569769154283
  O   6.06835807785333      2.14064867805242      0.01117213942824
  C   5.49770980562604      3.36710680448057     -0.05583950530597
  N   6.17988944941417      4.42455183329024     -0.06232834191294
  N   3.98748387138770      1.14661825608802     -0.01384954089061
  H   1.98444290609672     -2.29978345819274     -0.49311577256767
  H   2.60179719274827     -2.70752208901839      1.09510809327466
  H   3.85226407669085     -3.52325611344813     -1.56298805208939
  H   2.98500468238072     -4.58707862067524     -0.45884046297952
  H   5.51648905586956     -4.74310346230988     -0.18080447916255
  H   4.70659306375950     -4.21527385574331      1.28669607220964
  H   4.41513489492002      3.36429180795739     -0.10295000354090
  H   7.17395723170073      4.19518296548445     -0.00994048660754
