29
Coordinates from ORCA-job 5026optt
  Br  1.34696959443898     -0.42461065630292      0.27281595592824
  C   3.21812825628616     -0.15000891606185      0.12690949869175
  C   3.73742142780411      1.14672042872535      0.14934967050548
  C   2.97575662849649      2.43643509720095      0.07072300484196
  C   4.04233776058470      3.50012746579485      0.36614342539317
  C   5.39651588243513      2.83962885286721     -0.03618341015571
  C   6.45707690204234      3.43505828144734      0.84196320717677
  O   7.05921132303608      2.89094449360767      1.73205585616217
  C   5.10994049627050      1.37175796473258      0.06337130819838
  C   5.98535771873655      0.30396314599287     -0.07887541138250
  C   7.46499343899432      0.36643364743731     -0.01947940220420
  N   7.99249717819271      0.11416113502916      1.33676439832975
  C   8.33630903328395     -1.10984075665105      1.76379382925903
  O   8.48506250159199     -2.09951001745581      1.06704695538895
  N   5.43707239708665     -0.98293158390798      0.10000854622439
  C   4.07113673008704     -1.29975267689177      0.13524431900048
  N   3.64458740775496     -2.52268600858933      0.18465750456048
  H   2.14225246403536      2.48737027320991      0.77389319233239
  H   2.54578042909239      2.56940989050422     -0.93200873659991
  H   4.05481011422037      3.70358076021783      1.43983102542703
  H   3.87252468226784      4.44505689980647     -0.15322783397066
  H   5.65533645078549      3.14767492115423     -1.06371299809295
  H   6.64906225649944      4.51229060219295      0.64086158310697
  H   7.81614581908585      1.34841347201880     -0.33322066689969
  H   7.92877537092857     -0.38463038194981     -0.66274621608388
  H   7.72958933923015      0.80831498268119      2.02276585742119
  H   8.50460193184109     -1.14595482537983      2.85421356228193
  H   6.07047011689770     -1.76520168592764      0.02495450021961
  H   4.43227634799296     -3.16721480550292      0.18008747493935
