23
Coordinates from ORCA-job 5030optt
  Br  1.03247831308109     -0.10570538534284      0.05182078881230
  C   2.92602262013446      0.00468654418826      0.03955659818966
  C   3.57919351700510      1.24289185030846      0.03846517010999
  C   3.12597473256594      2.59724727865838      0.04121151980893
  C   4.23681185102933      3.39897381566198      0.03889201495505
  C   5.43689011977877      2.60769339595236      0.03438676042967
  C   6.70438652531509      3.26552142280487      0.03209017727084
  O   7.84319865251698      2.80700068918298      0.02815529491212
  C   4.98896524868873      1.25849333640013      0.03407253028429
  N   5.68150648148317      0.02422075637416      0.03045737962505
  C   7.03526029553964     -0.10012004378951      0.02751153722920
  N   7.69864140761524     -1.22031407346254      0.02316210206557
  C   6.98723561636606     -2.40479946715970      0.02036217354472
  N   7.49899126910370     -3.57440124767289      0.01435639124023
  N   5.60237639822449     -2.30338449009048      0.02430761737460
  C   4.89017510811685     -1.12892542505442      0.03004007111097
  N   3.59901277051242     -1.15483692729333      0.03492891355776
  H   2.09173291664949      2.90319138437680      0.04417514685659
  H   4.24635604338592      4.48060444562722      0.03998813713073
  H   6.58683788474824      4.36826863272856      0.03437627118681
  H   7.56837907901486      0.84587605296280      0.02886072525954
  H   8.50930725232735     -3.46670052035217      0.01233883171621
  H   5.06826589679706     -3.15748202500907      0.02248384732917
