27
Coordinates from ORCA-job 5031optt
  Br  1.02792664507297      0.23778505573855      0.39474851434235
  C   2.93943867378675      0.05868615117460      0.17400508906260
  C   3.52851932765302     -1.20057508184197      0.28414660045200
  C   2.83092244861462     -2.50795426021181      0.51327423573553
  C   3.04801445540656     -3.52751499541242     -0.61388532735105
  C   4.43611801898415     -4.16149404001000     -0.60478087030505
  C   5.58124844106599     -3.17495652288814     -0.75374195528491
  O   5.65568911797468     -2.27184181644187      0.34984255056352
  C   4.92734599283794     -1.12919440921071      0.18785211487388
  N   5.60798954838993     -0.03288714373072     -0.02867470678691
  C   4.90323651458127      1.09783774594637     -0.20818176659649
  C   5.63181031892651      2.29810971831489     -0.69608379892184
  C   5.43037483835841      2.26282914924851     -2.21141228564773
  O   4.63661244205588      3.04661426622247     -2.79104686370376
  C   6.07173906286221      1.17451535449900     -2.88361356318250
  N   6.61929959173823      0.30151515439708     -3.42283523967708
  N   3.56491881961077      1.17261960594264     -0.05680717776442
  H   1.76541454387617     -2.32295481944334      0.62980290096009
  H   3.18731203422434     -2.94645595394315      1.45226239402952
  H   2.86935990913676     -3.03849103257398     -1.57574466656906
  H   2.30239063271466     -4.32093893776330     -0.51499500005659
  H   4.51445841828772     -4.89462005330590     -1.41303073395665
  H   4.57701751154808     -4.70362807616215      0.33593455225371
  H   5.50721748506666     -2.60062940653160     -1.68267063266956
  H   6.53390010303024     -3.70491969857905     -0.76228186130512
  H   6.68211195847048      2.23259209999304     -0.40937559081045
  H   5.17361314572490      3.21695194657298     -0.33570691168400
