23
Coordinates from ORCA-job 5042optt
  Br  0.97765170256194     -0.31809466094559     -0.25493082654081
  C   2.88110528949148     -0.23771449669993     -0.16129497990803
  C   3.64377077312922     -1.35736457632226     -0.03728097311617
  C   3.04141861533868     -2.66258829576524      0.06786704842045
  C   3.78894360219580     -3.78631741526624      0.09698541496527
  C   5.20474300857174     -3.75852952740729      0.01665009039034
  C   5.84097361748382     -5.05389645686227      0.00047155487204
  O   7.02516334166673     -5.35989105621526     -0.08414253992214
  C   5.85228519407412     -2.49766077787619     -0.02254987762071
  C   7.30014145004301     -2.48472101628800     -0.14358949361879
  C   8.07513477692582     -1.41149073732209      0.01075817556932
  S   7.48751466837946      0.16869350836782      0.38847985501472
  C   5.75525561622542     -0.01283479830728      0.07498920678821
  C   5.14149616837568      1.28362549226781     -0.00358829614603
  N   5.68141874613036      2.45145654313670      0.07423870459193
  S   3.40082072502506      1.40491647680556     -0.27880271309070
  C   5.11862094200147     -1.27479219192886      0.01113320421545
  H   1.96562257677659     -2.72754731105909      0.11848864650776
  H   3.29660830122202     -4.75009674896945      0.17547668375449
  H   5.09746759021698     -5.87471892998400      0.07824736809335
  H   7.77094308924829     -3.43266093121709     -0.35742747043145
  H   9.15214659797713     -1.47198971371782     -0.07765716764815
  H   6.69175360693907      2.39921762157608      0.16647838485964
