30
Coordinates from ORCA-job 5043optt
  Br  1.04974189584629      0.51525059435276     -0.59759270178696
  C   3.01549813704323      0.24913096454427     -0.48153890422358
  C   3.53023652746559     -1.01775713392736     -0.57269287627060
  C   2.62997988552934     -2.19666820955914     -0.95658324072770
  C   1.94343832249597     -3.06041046863566      0.14954262788595
  C   2.81351373743719     -3.99514157161771      1.05467369273158
  C   2.13094042057280     -4.12071111622059      2.38057834733177
  O   1.69253870205814     -5.13543101441260      2.85714486867174
  C   4.13288888379785     -3.24783224372632      1.17823486862101
  C   5.19403019133824     -3.10643625867493      2.26257974127630
  O   6.07899539537688     -2.18053177540103      1.62520745408156
  C   5.82490414771575     -2.17382454683337      0.13228736495018
  C   5.08144729732264     -3.47366084293335     -0.00469368922212
  C   5.00509006237194     -1.03228020423559     -0.38833576900195
  N   5.68213010995931      0.15933657459528     -0.44824810854999
  C   5.00567944800022      1.26462974471353     -0.45857296116430
  N   3.65197946512989      1.40242034470563     -0.35540963978706
  H   3.13769703311051     -2.83552852464335     -1.67744293276407
  H   1.79140810029264     -1.77379947901075     -1.50706198092257
  H   1.15769390473419     -3.65350253822599     -0.32426781099225
  H   1.43593133065567     -2.34415301624671      0.80602437955385
  H   2.92690930411221     -4.99417509401157      0.62865968454921
  H   2.04346278022691     -3.16225822937370      2.93533939858749
  H   3.80843391493181     -2.21310131099315      1.14928454852777
  H   5.71419536024630     -4.04259460221670      2.50400735407060
  H   4.82074839967510     -2.65781321202751      3.18617136130916
  H   6.82608111370813     -2.12376622900282     -0.29197092366522
  H   5.71606485305463     -4.33908047106967      0.20874544182881
  H   4.62203708866188     -3.62072222404967     -0.97099903447076
  H   5.56330418712860      2.19541209413785     -0.52607056042793
