24
Coordinates from ORCA-job 5046optt
  Br  2.55324227430594      0.08218286266826      1.96090327869071
  C   3.62985761773450      0.08502044344672      0.39470429716957
  C   4.34996392050477      1.20682172095795     -0.05427880189484
  C   5.50304599811439      0.84291972793669     -0.90279081883354
  C   6.35313697757412      2.03146474329799     -1.08037292115625
  C   6.83395692266690      2.58101759415184      0.03455954490952
  C   6.26484788056302      3.92885757241116      0.36389584633210
  O   6.84788010385264      4.96906729904282      0.65023568200603
  C   4.82648554863746      3.74022559535261      0.39669989298897
  C   4.03156890058835      2.58800853229287      0.24957710602339
  C   2.55676562549342      2.90235439978181      0.39428680192934
  C   1.98570086874517      3.78303792605909     -0.69116376175241
  O   2.50918534729408      4.10789618840556     -1.71880497692141
  N   5.69721239480196     -0.30520584010543     -1.43983617351919
  N   4.78133448732712     -1.25652571158411     -1.16578706447388
  C   3.81757252199862     -1.22253244714603     -0.16411826611768
  O   3.23964881068339     -2.26242579198129      0.13858866564014
  H   6.04209994778204      2.69775259806416     -1.88274825130394
  H   7.02930310670492      1.94299528434972      0.89536901828575
  H   4.28695771524660      4.64491335768627      0.66909897251135
  H   2.31543023356507      3.37964998604919      1.35131149322198
  H   1.92431405778985      2.01299344201227      0.35746320768066
  H   0.94332088089034      4.10755017234345     -0.47750621013296
  H   4.99316785713519     -2.17303965549362     -1.52628656128341
