25
Coordinates from ORCA-job 5048optt
  Br  1.11460745742746     -0.13568741694119      0.10624372548504
  C   3.01117995110518     -0.11919438668029     -0.06709486988669
  C   3.69425752337457     -1.34434639526586     -0.20217939047204
  C   3.24293107442079     -2.68245538518212     -0.27157493786841
  C   4.35191807298822     -3.50853090945689     -0.45037615574072
  C   4.33261653693991     -5.00657292175303     -0.52244538593935
  C   4.89922637821987     -5.59493174809341      0.74109345452712
  O   5.75603662712201     -6.44057626092150      0.79687078794908
  C   5.52204049960785     -2.70786546883909     -0.48294686555916
  C   5.11542454748577     -1.38709015984126     -0.33610146741168
  S   6.17371174318608      0.00377648851072     -0.30154116022007
  C   5.00964373920446      1.29392559265025     -0.16386228374151
  N   5.54303148650452      2.59457503899628     -0.12127273399631
  C   6.82895485786482      2.98575629917166     -0.32376636777762
  N   7.30724532130767      4.17239367736868     -0.25138892030417
  C   3.64880174839503      1.11804671026237     -0.06155549338257
  H   2.21056739354425     -2.99753496048540     -0.21779338170095
  H   4.89191455181072     -5.41050651472710     -1.36930119033775
  H   3.29390096688904     -5.34716294558777     -0.60079881336953
  H   4.47529411064073     -5.16388878100156      1.67010089647271
  H   6.53638973440639     -3.06204673841601     -0.60258208857070
  H   4.87998585103888      3.32060220082708      0.10766837121948
  H   7.49992398851341      2.16967611814066     -0.58048294504697
  H   6.58181908471569      4.84659389624441     -0.00311043160505
  H   3.04157675328657      2.01304497102037      0.02519764727782
