27
Coordinates from ORCA-job 5053optt
  Br  6.66882517195953     -0.15057627690420      2.77395178198963
  C   5.41289882642842     -0.29164843568549      1.29368879088552
  C   4.92633109731023     -1.56832544125278      0.95538267822440
  C   4.70393804493956     -2.74604252628961      1.68952130664666
  C   4.22807267395289     -3.67951951477873      0.76107125503805
  C   3.96788389855181     -5.12874375722743      1.02548142472956
  C   5.09679376442226     -5.99656207582531      0.47542509219208
  O   6.34736868899544     -5.64522266473725      1.04472053582147
  C   7.12925952919111     -4.77609004642569      0.25571870720286
  C   8.02870637802602     -3.98883937840981      1.20738246057761
  C   9.16448001482997     -3.39156913065327      0.51008911762071
  N   10.06974470422880     -2.96186402957441     -0.04704217619266
  N   4.15258172366395     -3.18860492928023     -0.49040991624934
  C   4.57854502555106     -1.90523122013305     -0.39070727401222
  C   4.83638200085707     -1.04065980480703     -1.48538554569892
  N   5.27191726028685      0.17653665045575     -1.41895067499197
  S   5.51687732649175      0.91590791474167      0.06604256660923
  H   4.87236705154165     -2.90078039301220      2.74459940404943
  H   3.03260111898740     -5.44395122764343      0.55325178806011
  H   3.88435992385199     -5.30129067461373      2.10082251396895
  H   5.13611443058449     -5.89492889501961     -0.61361214403213
  H   4.92419373839406     -7.04866105773082      0.71773942488566
  H   6.50447116281286     -4.08523881305741     -0.31538743707846
  H   7.74115621854515     -5.36020103742271     -0.44308362561027
  H   8.41763413496617     -4.66616760385325      1.96985594985706
  H   7.44891059182686     -3.20693078865713      1.70213680752832
  H   4.68958549880217     -1.44079484220261     -2.48830281202138
