27
Coordinates from ORCA-job 5054optt
  Br  1.11948681734683      0.84951093192374     -0.82430596993386
  C   2.90515130445966      0.83615447902972     -0.10613826402513
  C   3.13767911888721      1.40438022984947      1.16156045666307
  C   2.66742104534916      2.82740607767910      1.46895434264926
  C   3.48107140880497      3.79053050408954      0.64516412101589
  C   3.25131692942836      4.06652477887707     -0.63639313610993
  C   4.18591337230876      4.86008294828416     -1.49249941561254
  O   4.80621245131480      4.10019227302342     -2.52848878770527
  C   5.96080612829652      3.37133584636704     -2.17503071917589
  C   5.77286733478343      1.84994736894041     -2.17255537955013
  C   5.05495164535203      1.34066381757914     -0.95560227902401
  O   3.76954745980236      1.04811072752212     -1.20790279217863
  C   5.64256923115836      1.26510355667212      0.24650353833905
  S   4.70189887247499      0.98117840073726      1.70120743159165
  O   4.83038714939315     -0.41788532872382      2.04736280726121
  O   5.17414158149350      1.94585275229174      2.68538242875637
  H   2.76461487200367      3.04198372345396      2.53155993653850
  H   1.61170156491490      2.89291935796525      1.19562609731390
  H   4.39343166980872      4.16221142870044      1.10866193527973
  H   2.37808748197475      3.64811915991318     -1.13232481055103
  H   3.65224019275703      5.65463644001121     -2.01982818586753
  H   4.95573835699056      5.32766283998902     -0.86652889809124
  H   6.32735822925171      3.68516178658677     -1.19151216003681
  H   6.72837662185226      3.61667459718500     -2.91698364447914
  H   6.76738373111992      1.39857265298330     -2.21043367662331
  H   5.22877361300137      1.55319900282431     -3.06989582846259
  H   6.68287181567091      1.53476964624524      0.37344085201843
