24
Coordinates from ORCA-job 5058optt
  Br  1.00145511063610      0.24383201538144     -0.17132112770204
  C   2.91356503447262      0.10513333342790     -0.11972797932470
  C   3.62270587453381      1.27929855053796     -0.08312362087953
  C   3.15588433527046      2.69884251017713     -0.05505870029526
  C   4.36090267185747      3.44125033717119      0.52262744263583
  C   5.56775035848275      2.61389176602361      0.05044210098913
  C   6.06760092076391      3.03020280229462     -1.34108350970380
  O   5.71841897608213      4.01502738621487     -1.92868113249932
  C   6.69397815441439      2.75621760150928      0.97373829386838
  C   7.59091548324144      2.97137448536353      1.73637078078405
  N   5.04934230589891      1.24258208561548     -0.15853809492957
  S   5.76614864673837     -0.09422002282634      0.67664206820609
  O   5.53871058305563      0.19338676354365      2.07612649727265
  O   7.13977548776461     -0.16560880147214      0.23504449979299
  C   4.85581168968261     -1.35916137080616      0.06514467251191
  C   3.47595448178010     -1.17364755733822     -0.13257131979371
  H   2.25899009389120      2.82479084337591      0.55031030064329
  H   2.92915108838969      3.06864878180090     -1.06296821139357
  H   4.34028763482751      3.40780824748043      1.61093431237592
  H   4.45205096671896      4.47251084539060      0.18651394839783
  H   6.77177599725133      2.29703109479830     -1.77306231252396
  H   8.36910450115269      3.10351146091381      2.44762348794911
  H   5.43029455259885     -2.19564246331922     -0.30005929901694
  H   2.84642505049434     -2.02406069525855     -0.35832309736479
