23
Coordinates from ORCA-job 5059optt
  Br  1.96794555261225     -0.24299594056525     -2.35454369759507
  C   1.56617790028820     -0.68442469128525     -0.52109642184216
  C   2.54102336193383     -1.30870436914153      0.17713512133422
  C   3.85514259559364     -2.01021112103883      0.05169086570066
  C   3.63594432227624     -2.44201396550080      1.54308107280591
  C   4.64701715646174     -1.88371269861323      2.53566247477888
  C   6.05643233927051     -2.36646982322885      2.36118847080974
  O   6.45761638749324     -3.04572669195458      1.45707886568964
  C   3.46361655962197     -3.87664965612555      1.74458112958041
  C   3.38533945591320     -5.05360665430982      1.94655551245313
  N   2.40242688014224     -1.58854241171558      1.57810168492606
  S   0.81266890995021     -2.02758454115162      1.98939645228984
  O   0.55917393306891     -3.31765885367626      1.38773334766079
  O   0.66312204791150     -1.94879017474676      3.42372570853290
  C   0.04766032031853     -0.72244642665446      1.19487722732344
  N   0.39387436074661     -0.29275986741619     -0.03713916350555
  H   4.73670342392424     -1.38116875543696     -0.08828684017593
  H   3.89351874140416     -2.84527410207694     -0.64662729422758
  H   4.32410229772648     -2.09181701555012      3.56048088057819
  H   4.66211434864604     -0.79148287558050      2.44193554388698
  H   6.76032690629355     -2.02041080642869      3.14700142674788
  H   3.26962508744045     -6.09759230392316      2.10683306270191
  H   -0.82557288903785     -0.33895625387900      1.70163456954569
