27
Coordinates from ORCA-job 5060optt
  Br  3.14545544740047     -1.96860953371693     -2.17458716026730
  C   2.68538682179976     -0.31163028914112     -1.05560625580143
  C   3.33480471363797      0.92672335255238     -1.54664046643055
  C   2.71039434574373      2.11218044071923     -1.69625836438766
  C   1.45349069776799      2.44577378917649     -1.01404997887733
  C   0.32657341202937      1.46839071325879     -0.88712151203326
  C   0.00896752756638      0.71257097566552     -2.14938697135558
  O   -1.09304544450774      0.30118971225170     -2.41100861585305
  C   1.55274592571813      3.49325505907580     -0.16040349630246
  C   0.82250417784004      3.58124196598737      1.12169029939454
  N   0.75477841663646      2.65723046600662      2.03057691416920
  C   1.60068958108362      1.56586258970530      1.97522759198060
  C   2.91629635371621      1.61760181859216      1.54150686996710
  C   3.65973097721552      0.60205982378831      0.91676599824402
  N   2.90320636554601     -0.43562064506007      0.26761523546956
  C   4.81540893523971      0.94346491000326      0.08048712011822
  N   4.72062296099328      1.00772826016856     -1.20898052480118
  H   3.38115747549408      2.95478551911270     -1.84212316550919
  H   -0.57762449507810      1.96750063993672     -0.53759090256126
  H   0.57864744772460      0.72104794579128     -0.11895563803002
  H   0.85132987365036      0.53805989884402     -2.84251193356728
  H   2.33788597876864      4.22492561340267     -0.34571124122246
  H   0.25146813534874      4.48833828737506      1.32452487589755
  H   1.16487101495616      0.63004665881095      2.30837520179430
  H   3.37391896215171      2.60704609247862      1.56689867279069
  H   2.56767214738694     -1.24295392476216      0.76757412610400
  H   5.78266224416984      1.17978985997668      0.52269332107022
