25
Coordinates from ORCA-job 5062optt
  Br  5.18775086716875     -1.28876901156799      3.31758586147882
  C   5.72956817249151     -0.81178249368775      1.56432381714251
  C   6.94577333046370     -0.19298482944075      1.36601331222256
  C   7.33331718016343      0.15085544102510      0.05879456563171
  C   6.70908472207057     -0.45003767363141     -1.03220635481945
  C   7.77509808710480     -0.94336513373022     -1.91809356648426
  C   8.04611490069910     -2.24280114921939     -2.07246591024166
  O   9.38362680370691     -2.64475665080340     -1.92372241748709
  C   9.85892020079879     -2.31392005870011     -0.66608801786667
  C   9.08890119307840     -2.08532968073175      0.40170441765000
  N   9.55457606513085     -1.61677292089424      1.64693093590093
  C   8.97948074003873     -0.63587186743415      2.44852375534597
  N   7.87853959412415     -0.00658440357484      2.41141774778914
  C   5.44914240987867     -1.12277640383582     -0.89479642631129
  N   4.84380361432894     -1.76570809900929     -1.86038315785637
  C   4.83349269059612     -1.18015670894825      0.48258591871342
  O   3.70098460014123     -1.61795900280176      0.66131395278657
  H   10.51715451879490     -1.80776235364900      1.87201824959011
  H   5.38364620936052     -1.63745074995255     -2.71866203228257
  H   8.32139881971804      0.57960803109016     -0.05682084871616
  H   7.32090641647544     -3.04506842710591     -2.00308608751993
  H   8.64867165219524     -0.29857588337306     -1.96963380813399
  H   10.93852250960562     -2.21614496142590     -0.65147467442954
  H   8.01926356607105     -2.21376831165315      0.34607851778526
  H   9.64026113579441     -0.41411669694455      3.28714225011199
