26
Coordinates from ORCA-job 5065optt
  Br  0.50351092215301     -0.39633331643640     -1.05311348350932
  C   2.73439051100116     -0.16243844858863      0.07688227991733
  C   3.40591973383642     -1.32076687277186      0.17769851562761
  C   2.89369490285336     -2.73633004763226      0.27067676657647
  C   4.15231698865789     -3.53226267510986     -0.10699564137235
  C   4.39097564682837     -4.80252559036586      0.68737446311844
  C   3.42776882684516     -5.92978814945277      0.46018972305780
  O   2.54278211925320     -5.94701107114804     -0.35003958236758
  C   4.17209875138093     -3.75593002048954     -1.63092959697048
  C   5.34185523661287     -4.51797552586887     -2.06008872362799
  N   6.24585325773564     -5.15847645684998     -2.35699531118110
  O   5.26442679038390     -2.67018223272342      0.21688799330142
  C   4.83332269923523     -1.37384042844317      0.16804949728541
  C   5.70267127329678     -0.34016913994809      0.09958654597189
  C   5.26767095221940      1.03640369755679      0.04128638571080
  N   6.00463214214624      2.08463055453773      0.00966810169589
  S   3.50274000225870      1.34797594480699     -0.02356413345729
  H   2.05480039246452     -2.91449052641159     -0.40111769334645
  H   2.57313819501280     -2.98550339322016      1.28680878331886
  H   4.38378981141414     -4.56313561702120      1.75537078495191
  H   5.39479335709954     -5.19135023564605      0.47664123399047
  H   3.59424372775435     -6.80664674137593      1.11727746665052
  H   4.16552521868153     -2.77817298148055     -2.11790468822421
  H   3.27712659375407     -4.29990731391213     -1.93032240864681
  H   6.76833303063914     -0.53511555547379      0.06993959224687
  H   6.98761891648146      1.81534214346876      0.04273312928188
