29
Coordinates from ORCA-job 5067optt
  Br  2.28674011302950     -1.23124454068836     -2.43127171002541
  C   3.15722368194440     -0.10141518831963     -1.16386786312460
  C   3.20617649379517      1.24530568929069     -1.27103272436432
  C   2.59437836994838      2.01934132947057     -2.40060871379078
  C   1.11967104785301      2.35068836385396     -2.12485197945166
  C   0.91407973110643      3.16845270628755     -0.85063096343551
  C   1.02485775165813      2.34631819314984      0.42986926694302
  O   0.59587670652058      1.22180489440961      0.48965793649024
  C   1.47530963233679      3.08682196241868      1.69562464386493
  C   2.26019979547950      2.23994455166251      2.69503699810523
  O   1.71689606076035      1.74247742914852      3.65414352250723
  C   3.72967195293968      2.04488426100519      2.38429783804733
  C   3.77617826981253      1.25457478787229      1.10907385464564
  C   3.64731035713626      1.93347241165383     -0.10983402113796
  C   3.60649134310528     -0.16228521086866      1.16094618969267
  N   3.52404617567572     -0.97827418948408      2.14331281224444
  O   3.61215335810515     -0.79746100349861     -0.09638265370475
  H   2.66643216527056      1.46558085407394     -3.33788174742590
  H   3.15393916286351      2.95265167761397     -2.52714350232694
  H   0.55547538414308      1.41954885625589     -2.03600397989020
  H   0.71164878581631      2.90444659663156     -2.97496798566804
  H   -0.10141036910989      3.58666994084953     -0.84472205307236
  H   1.60512216544792      4.01408485213635     -0.81439617530593
  H   2.05809017881187      3.96696035929123      1.41694379459262
  H   0.56377304505729      3.41361662618230      2.20454806391670
  H   4.20591208939617      1.54487510559458      3.22886566372469
  H   4.20778892682614      3.01868638559384      2.22942557139372
  H   3.84359283065602      3.00048507466447     -0.16676999865636
  H   3.51937479361411     -0.46301277625156      3.01861991521226
