29
Coordinates from ORCA-job 5069optt
  Br  1.35798029139096     -0.16773901485270      0.76543014755982
  C   3.15928803293640     -0.15165848039552      0.18015843218042
  C   3.80358400226916     -1.28099355497734     -0.09643587124247
  C   3.38441297296095     -2.71786238538896      0.04884433287535
  C   4.59255278254614     -3.48343158707336     -0.52476572346102
  C   5.75966785080931     -2.50387629135840     -0.37132509675912
  C   6.37515107922843     -2.54921675729773      1.02099355231361
  O   6.98418932026650     -3.81913440052762      1.22211243896745
  C   7.61376162720416     -3.91347500385616      2.46008150573730
  C   8.26875992445818     -5.26589525734292      2.56578814273471
  O   8.80415411301863     -5.67081766914275      3.56054869101065
  N   5.10969955684290     -1.22171228652730     -0.59717441514973
  C   5.87519575462999     -0.01093434349783     -0.43806412708117
  O   7.12133969836706     -0.07195139071310     -0.59395749345179
  C   5.14581103928265      1.17796582171207     -0.14130009376736
  N   5.65550056485078      2.36488151754524      0.05300800671492
  N   3.70823141874200      1.10591646640344     -0.07709285206702
  H   2.45715358743819     -2.93544512442787     -0.48285623671449
  H   3.21386379376716     -2.96119872299268      1.10063679936934
  H   4.43545626915800     -3.68694529630632     -1.58431903798276
  H   4.78435110256806     -4.42708478021267     -0.01572952221376
  H   6.55046999561638     -2.65989282644765     -1.10464121086450
  H   5.59751900151555     -2.38888847495907      1.78215647708639
  H   7.11915908004560     -1.75196471991668      1.10299237830042
  H   6.90685112997528     -3.79846242863569      3.29402310388630
  H   8.38985647628067     -3.14440033187099      2.58532800218257
  H   8.22741496973192     -5.87117278386990      1.63980388718652
  H   6.66328621547924      2.27147319075231     -0.05965060680666
  H   3.35933834861914      1.85591691617833      0.50540638945598
