27
Coordinates from ORCA-job 5070optt
  Br  1.21171181661227     -0.08698517977885      0.96603700143526
  C   3.06223009937782      0.05521895991385      0.42560501717451
  C   3.62410169612491      1.34059090944012      0.14528946305153
  C   5.07496529320463      1.32987445529306      0.03874906587513
  C   5.92144318556245      2.54477689227986      0.35375384928681
  C   5.79016877841025      3.81729941384879     -0.48892120977905
  C   4.37980209430781      4.33967168617452     -0.41497665212618
  O   4.28071202666528      5.54240021219688     -1.14001772259135
  C   2.99259387988648      6.10356288276087     -1.07759518023264
  C   2.76875980886164      6.92342484424726     -2.31671526256315
  O   1.98494579709917      7.83002088409642     -2.39645394337104
  O   3.52766540208651      3.40086514635360     -0.99070297911844
  C   2.85661097197622      2.51580412994632     -0.10503245354836
  O   1.74361530898474      2.85439343495896      0.26530875607078
  C   5.70468864974564      0.10555477179025     -0.07005563512859
  C   4.98812539839652     -1.08169040095444      0.01678422463761
  N   3.67052318627904     -1.07915521276943      0.34309810187944
  H   6.96777929169464      2.23244431042995      0.33632519625906
  H   5.70115069949521      2.82628211349413      1.39443955908853
  H   6.01078651226414      3.61636783667192     -1.53974962427447
  H   6.48865229529834      4.57326929435565     -0.12186211884151
  H   4.07205489955458      4.52022861303142      0.62780796591992
  H   2.86276190048048      6.73192932837003     -0.19004973604146
  H   2.22923991444275      5.31266097061790     -1.05579323317345
  H   3.38334258142755      6.61323925320137     -3.18360946234716
  H   6.78561981590541      0.06584422812549     -0.16335982219271
  H   5.45794869585536     -2.04989377809605     -0.09630316534897
