23
Coordinates from ORCA-job 5073optt
  Br  1.16817292326486      0.14657246166491     -0.35065649966666
  C   3.04431596501616      0.02427639281063     -0.16673925940635
  C   3.71281523668313     -1.18037917800937     -0.04641047862218
  C   3.11008862286427     -2.45512797971865     -0.04319299120935
  C   3.89681191537294     -3.58775154632404      0.09212309955324
  C   3.29590265939122     -4.95844203056718      0.12077046939164
  C   2.81577950093495     -5.52865358032678     -1.19223384477821
  O   2.84748179936335     -4.99261729053863     -2.26198753472490
  C   5.27048536122975     -3.41590027708983      0.22044591947882
  N   5.88317919652986     -2.23155823147777      0.22533456206608
  C   5.15854682920768     -1.11914980639792      0.10054060277219
  C   5.80373911335803      0.15093029923340      0.11981903325171
  C   7.20999633184883      0.22933010371562      0.27883383080876
  N   8.35293279779219      0.30007364321225      0.40903379707529
  C   5.08763740703717      1.37991847933320     -0.00369205784547
  O   5.53693228276249      2.52010024360518      0.00214797522321
  N   3.69756563631963      1.22812793954582     -0.14690698663851
  H   2.03548782463083     -2.53874366992430     -0.15041545587924
  H   2.42859002124544     -5.00481281977478      0.79328369345987
  H   4.00720877600965     -5.68883542265052      0.52413841324644
  H   2.39359806686985     -6.55407416542165     -1.09960603041506
  H   5.91446787760699     -4.28510118783182      0.33086347221853
  H   3.18626385466063      2.09081762293229     -0.24049372935985
