23
Coordinates from ORCA-job 5076optt
  Br  1.33800397100857      0.12468799796599      0.86382997870217
  C   3.05599392732217      0.01491849339080     -0.09386809459930
  C   3.79043739101845     -1.18764014082581     -0.05675881671732
  C   3.13617968404290     -2.44534731966089     -0.04946768699616
  C   3.78887706578349     -3.63774708246086     -0.10263775249205
  C   3.03424921738539     -4.92964140961302     -0.05445726000080
  C   3.01687810870987     -5.72262107141675     -1.34597786737416
  O   3.05038461952035     -5.25538881147639     -2.44777048118819
  C   5.23903318700221     -3.71427722247242     -0.19102548885491
  N   5.94436764465303     -4.80803368921925     -0.26555278583256
  C   5.88439803845105     -2.42028740378558     -0.17043331512761
  Br  7.78201337622536     -2.43817773053567     -0.23321544487810
  C   5.21480676158427     -1.22540322337021     -0.09652639418868
  S   6.18615931801926      0.25405924617079     -0.01515120103639
  C   5.00125935264882      1.56376701288630     -0.07083824729794
  O   5.40855191350142      2.70739224356073     -0.11860620151614
  N   3.67975944088037      1.26159382705773     -0.08779482108293
  H   2.05360613512724     -2.44251907101952      0.00203441954579
  H   1.98186760478532     -4.74308211725534      0.18842626716145
  H   3.42178379688716     -5.58803735541437      0.73131915771037
  H   2.92336004160557     -6.82289335909547     -1.21560277808508
  H   5.34012614635798     -5.62503854485149     -0.27931327119131
  H   3.08890325747963      2.07471673144076     -0.19661191466014
