27
Coordinates from ORCA-job 5077optt
  Br  1.33655869144211     -1.03756713546577     -1.33454428597858
  C   3.16989619840720     -1.08934210475223     -0.68720365739815
  C   3.36519167487549     -1.43994078734692      0.63432846048864
  C   2.48082932500095     -2.34504982352868      1.42773926592503
  C   2.96567281800441     -3.81594606496861      1.37636633022342
  C   3.07495234548601     -4.40115059296071     -0.04663761088518
  C   4.49969827746266     -4.70138292161030     -0.49477781222089
  O   5.25616427089611     -3.50159858817145     -0.48381746168185
  C   6.04717561707224     -3.21101182833905     -1.55074609595363
  N   6.27484292966927     -2.04910242706555     -1.96652214167690
  C   5.51983797773787     -0.98192436180404     -1.33205237574441
  C   4.14147234687476     -0.86236261652671     -1.66315066824111
  S   5.85333108153097     -0.53934616684921      0.27638027158133
  O   5.61965278609608      0.86568440313164      0.46466211578964
  O   7.08830611707706     -1.11463924223561      0.75779814030595
  N   4.65315492527652     -1.28814634572877      1.20766005688231
  H   1.46213012878421     -2.29839832143895      1.04577243008154
  H   2.45698542325684     -2.03040587810405      2.47665090573748
  H   2.28111653747676     -4.42111076635111      1.97689558720478
  H   3.93820574254538     -3.89320648068758      1.87387293272801
  H   2.63192866153907     -3.70900314844400     -0.76644056237531
  H   2.51464024567990     -5.33806229942628     -0.11243639667575
  H   4.97112687980559     -5.41959461556235      0.18615554548247
  H   4.49641393182026     -5.13253005050907     -1.50065880414471
  H   6.49789500139269     -4.08184428020986     -2.03144847922662
  H   3.83730274397153     -0.78497561230384     -2.70113768723391
  H   5.04051732081797     -2.16004194274089      1.55429199700641
