28
Coordinates from ORCA-job 5080optt
  Br  1.65436885038633      0.91447205278783      1.91507043580796
  C   3.27230839829145      0.64795470081152      0.96362941495631
  C   3.72863227394408      1.62538978772413      0.06923153732651
  C   3.09431846769946      2.84576093826379     -0.21713352717785
  C   3.60706353150067      3.75500256909297     -1.14102938293938
  C   2.91779354949191      5.07801160361369     -1.32305238594203
  C   3.28107886270657      6.07954713245129     -0.23303787636392
  O   4.61901972351935      6.55993388995661     -0.36970210682960
  C   5.60878297283898      5.84915495457829      0.20934251843584
  N   6.82096893192285      6.18596389524221      0.16474922918940
  C   4.80345301130976      3.46437189734078     -1.81278535160641
  C   5.47521731912262      2.28823445325088     -1.55801840427418
  C   4.97172361521880      1.34006501755698     -0.62539504472269
  C   5.60732737706662      0.15636696359801     -0.35147584254427
  O   5.14063560518885     -0.76311244883496      0.53694243809434
  C   3.96365664494590     -0.55895266698856      1.24973538724416
  N   3.61418041884009     -1.46585126416881      2.08708024120489
  H   2.16672611732618      3.07514512800005      0.29382874223131
  H   1.83155235489194      4.94467463440153     -1.29073390388005
  H   3.16807309766246      5.52085656265626     -2.29055880065391
  H   3.15229586974491      5.62283987055682      0.75257648854318
  H   2.65459944675857      6.97088515382448     -0.28825890647726
  H   5.28665412192473      4.95339712028990      0.74029082853563
  H   6.92249853078695      7.03832115089663     -0.38791721779872
  H   5.20883234914179      4.18193050968491     -2.51792187111465
  H   6.40516446037987      2.06604430454923     -2.06903035335524
  H   6.53481577114107     -0.15470791316478     -0.80994784732263
  H   4.31025832624706     -2.20669999797175      2.07052156143328
