29
Coordinates from ORCA-job 5091optt
  Br  1.60291933280279      1.01240424363235      2.82892280830252
  C   2.19079810450828      0.55077568606404      1.05925957149168
  C   3.01138542350954      1.37178769983219      0.36516598255101
  C   3.24857997073607      2.82978121784487      0.59162651676334
  C   2.35354012162580      3.66377600830952     -0.36287435083089
  C   0.99264296350176      4.11844746507163      0.17726057070746
  C   -0.09507720998191      3.06748937150413      0.37717347833467
  O   -0.40558124655202      2.40602114166633     -0.84632251119995
  C   -0.12719214168796      1.07959858939622     -0.95223858761968
  N   0.35179581916953      0.65456232698130     -2.03377264681493
  O   -0.49156648881988      0.40745182936199      0.15658753297396
  C   0.22891679826522     -0.83888664435236      0.49601372764807
  C   1.70059587530310     -0.64251163808161      0.44300788835514
  N   2.38014831058778     -1.19499052011813     -0.61214494936935
  C   3.36542660911284     -0.50997585666180     -1.20107506770818
  O   4.13469486916159     -0.91545273903997     -2.07122227378415
  N   3.49830237405928      0.86078871715583     -0.82176549665698
  H   4.29880462545683      3.06607331775932      0.38753034990788
  H   3.05116099827201      3.09358783935214      1.63078470516967
  H   2.19386208403150      3.09618538294291     -1.28417764275136
  H   2.90074526285639      4.56832923010088     -0.64212809061333
  H   0.60028512560056      4.87010679617510     -0.51410281714646
  H   1.12972871022125      4.62024568587501      1.14247195917224
  H   -1.00737670612140      3.56957577415819      0.71052584558184
  H   0.17627276272456      2.34413772520115      1.13678074782553
  H   0.51828854933721     -0.34820811315606     -2.00692155800952
  H   -0.06017499829367     -1.62727868089112     -0.20078216187999
  H   -0.17201593887995     -1.04728822836662      1.48746976763911
  H   4.18309003949287      1.37946637228254     -1.34705329803934
