29
Coordinates from ORCA-job 5101optt
  Br  2.62717310884796      0.64244440638447     -3.13867574940772
  C   3.50388898211699      0.26329996885994     -1.49021496012721
  C   3.73787826681470      1.28841392011569     -0.53091778607674
  C   2.92996109191989      2.54972944029352     -0.52592349382324
  C   1.50710087659331      2.26104725251286      0.04252656786309
  C   1.53367097996216      1.73246439647956      1.49893657854886
  C   1.77263587505937      0.22321938360973      1.64866149652178
  O   2.66132471831225     -0.00980349051861      2.74260979766311
  C   3.50164133525179     -1.12005800766003      2.63857336498823
  O   4.81226700431235     -0.81046935806283      2.19675449844326
  C   4.83917166819985     -0.33650765346238      0.88427551302249
  N   4.57589355366773     -1.31440941428324     -0.08598053301516
  C   3.99570077300050     -1.05853282891123     -1.34544390510095
  O   3.94636421250283     -1.98358944650733     -2.16060084179274
  C   4.42687406193016      0.96493255990627      0.62470597398436
  C   0.69734978655375      3.47738466806508     -0.03203763668326
  C   0.06755065939900      4.49858047721368     -0.08120002429935
  H   2.81664687445771      2.97973161231298     -1.52193822702999
  H   3.40079843480817      3.29736657650090      0.11686201391147
  H   1.04591145111711      1.51018320400320     -0.60852480703027
  H   0.59493465920487      2.00288573612751      1.98472500594677
  H   2.32693120825252      2.25047271129419      2.04045997806291
  H   2.17545345486288     -0.20189450122595      0.72876587367567
  H   0.82494832163209     -0.28456960563121      1.86228334151385
  H   3.06180558016994     -1.86321614046795      1.96320493358915
  H   3.62895767956952     -1.53254079052278      3.63953459026937
  H   5.08893207993927     -2.18329832948033     -0.05746661755983
  H   4.48873311880533      1.67293165214614      1.44064483628981
  H   -0.49749981726410      5.39680160090810     -0.13559978234776
