29
Coordinates from ORCA-job 5102optt
  Br  2.34544577103053     -0.17791049997983     -2.76459060395194
  C   3.49209219630733     -0.02472751359292     -1.18972010118766
  C   3.73351686485920      1.25725247138737     -0.67592754515802
  C   2.80875769371189      2.42132686927420     -0.82667078317813
  C   1.50795845896080      2.25121260674390      0.02655571143645
  C   1.79226056273812      1.71673205102841      1.45586255196775
  C   1.74510666010288      0.18671628653036      1.52881613511672
  O   2.81577972038559     -0.31470983686906      2.32424881048986
  C   3.14903979499683     -1.65636898714661      2.11634035434673
  O   4.47323544329375     -1.83114481166549      1.64976191896919
  C   4.76716349527866     -1.09151310452849      0.49365580772187
  N   5.31760973297587      0.16803908142934      0.74742565114901
  C   4.73162648859699      1.37076783831775      0.34816134524374
  O   5.08173694728746      2.41903064705569      0.90591611645916
  C   3.95016426226972     -1.20202171845516     -0.65746254667528
  C   0.78024189786125      3.51936934561095      0.06722635145831
  C   0.22030317175313      4.58147961580520      0.09694664252183
  H   2.50967399810829      2.59255469157374     -1.86277868878073
  H   3.32706477460921      3.31080205248901     -0.46783438051652
  H   0.86666405190180      1.52799275004309     -0.49045151190800
  H   1.06712435866569      2.14277987490169      2.15018639096895
  H   2.78096850426201      2.05422093295195      1.76929798180009
  H   1.81578387945676     -0.24038795253963      0.52804540860221
  H   0.79318349329823     -0.14277418716524      1.96584263390221
  H   2.44730272830596     -2.10310266300364      1.40199637109695
  H   3.11553387836303     -2.19099538913534      3.06864705007557
  H   5.87965243824722      0.26098580173038      1.58003704694389
  H   3.63951965191289     -2.16625684707898     -1.03643178030573
  H   -0.27351091954118      5.52165059428736      0.12689766139152
