27
Coordinates from ORCA-job 5103optt
  Br  4.56884844508534      0.34926276039792      2.59013414117462
  C   3.40839647338569      0.26423091198298      1.10537013944044
  C   2.34483094113187      1.07614352643756      1.00672203420017
  C   1.92051510283410      2.23176845612950      1.84973806197381
  C   2.35756666038436      3.56522304010960      1.17014935988663
  C   1.21174875513414      4.37689097576369      0.54043240574676
  C   0.33112392514564      3.51496172221449     -0.34955143963709
  O   -0.78926935084434      3.13952089552048      0.08145547260094
  C   0.92412708581355      3.03731859215895     -1.56343106771601
  O   2.04846739127041      3.40948117646210     -1.99923162907974
  C   0.24365150506796      1.83818135086544     -2.21400556749850
  N   1.12422781622515      0.64618505371764     -2.23424321356639
  C   1.92790385219262      0.34423459829481     -1.19117061661206
  O   1.54202124177312      0.98000453623162     -0.07941761175632
  C   2.98937348747164     -0.51333357564065     -1.17104825045806
  C   3.78125065725176     -0.67252299539943      0.01668110057170
  O   4.72021575938942     -1.45185679579814      0.12402566539347
  H   2.35747720937249      2.13364077767680      2.84001383009262
  H   0.83073342821280      2.20778229076916      1.93568147302920
  H   3.08381354527625      3.34589774721007      0.38474460202473
  H   2.87039744056116      4.18011576617362      1.91304404032425
  H   1.65873237187867      5.19378790649229     -0.03017358429431
  H   0.56970172505342      4.79169845640028      1.32031176327902
  H   0.00817039274775      2.04470070108757     -3.25941689641571
  H   -0.67320848265020      1.60438727700493     -1.67645002031994
  H   1.51524310380051      0.39350346391564     -3.12543541969307
  H   3.27993951703467     -1.05020861617899     -2.06192877269115
