27
Coordinates from ORCA-job 5104optt
  Br  1.09275043940153     -0.01096914897734     -0.12356872670945
  C   2.99462290732951     -0.15325860406154     -0.02282186129240
  C   3.61808971236597     -1.33651555042617      0.32190853516101
  C   2.94038792764536     -2.65505614502048      0.53706717672972
  C   3.23381881021231     -3.62980379316375     -0.61507544964405
  C   2.45523843110001     -4.94028937180177     -0.38514956057923
  C   2.42554574795974     -5.80801528393210     -1.62332086768528
  O   1.66331227123625     -5.59811894824355     -2.53498039041288
  C   4.68102752116191     -4.00629347411891     -0.95003626988133
  O   4.77829702160094     -4.88950425519099     -1.85264786132914
  C   5.86582650042270     -3.45681721325181     -0.34030095203294
  N   7.07468011405426     -3.78692715418502     -0.67438807980822
  N   5.72555261603945     -2.47737361135941      0.74111787125486
  C   5.03413889591927     -1.31050351017213      0.35785495082986
  N   5.75467590961997     -0.24380908686948      0.03932602691162
  C   5.10885235839061      0.86362816100767     -0.31296344260743
  C   3.73229303732822      0.97987360979570     -0.34238925045855
  H   1.86231323132064     -2.51411024648129      0.60635481857942
  H   3.25727919441496     -3.09749742635053      1.48702192285586
  H   2.81421717178195     -3.17946900038942     -1.52534793186428
  H   1.41625388844865     -4.70845277910396     -0.13392848868753
  H   2.91467229115291     -5.48479314793287      0.44474839705099
  H   3.08910743240047     -6.68492878674081     -1.63395483919537
  H   6.97886243570154     -4.46444775184036     -1.43400229053478
  H   5.25429280417304     -2.91809154092912      1.51938499874121
  H   5.72601728377359      1.71621775887407     -0.57858782902992
  H   3.24887404504410      1.90632630086544     -0.61532060636176
