26
Coordinates from ORCA-job 5105optt
  Br  1.19469781807181     -0.52495743387737      1.43819496345150
  C   3.02500785808338     -0.38399214385212      0.86571932850724
  C   3.57683366017219     -1.42866693777223      0.10852174808205
  C   2.70840947046184     -2.59814691774524     -0.28907949626781
  C   3.30542728800176     -3.62270378754773     -1.23592353720247
  C   4.57499224718665     -4.27392204997304     -0.67746819796565
  C   4.67997950719022     -5.75824819965415     -1.02709644173161
  O   4.20215478201229     -6.17190501754290     -2.11420404544189
  C   5.31009472156850     -6.56899257878288     -0.04131977741626
  O   5.76915187042954     -6.15406247422169      1.05363261227366
  C   5.76293720008205     -3.49910744438812     -1.16960008720821
  O   6.73209941273170     -3.93396708689588     -1.73357531994862
  N   5.72591772565146     -2.10031893287248     -0.97716153362761
  C   4.93143414926237     -1.24467969543680     -0.23302917092727
  C   5.55828693693819     -0.05037702860379      0.16668752034517
  C   4.86934787304538      0.88999723567113      0.88690035399278
  N   3.59661572583219      0.72842301167633      1.25264222894562
  H   1.79002353107648     -2.19163310467960     -0.71996256425019
  H   2.39927632936639     -3.11073678880927      0.62764380684772
  H   3.49906024865000     -3.18243377225902     -2.21676262595042
  H   2.57492607541147     -4.41298691045010     -1.40665002608738
  H   4.59829507288554     -4.19391173738432      0.41722537763947
  H   5.37100836165966     -7.63850022440411     -0.31020437539781
  H   6.61093932608123     -1.70321375297100     -1.26031308179050
  H   6.59796943356248      0.11429329923759     -0.08607294025003
  H   5.34711337458515      1.81075047353884      1.20125528137852
