23
Coordinates from ORCA-job 5107optt
  Br  1.17653550473982      0.26624626926254     -0.56262745914040
  C   3.06675987603604      0.13934171694554     -0.28343262916006
  C   3.64676155529895     -1.13604502336812     -0.11068912833001
  C   2.86185989160809     -2.41041109550371      0.05480759711534
  C   2.47363575241175     -2.65852389418289      1.45449081858679
  C   2.21250485541017     -2.85857701694906      2.60787287235590
  C   3.69590177979099     -3.58985133851649     -0.44644596749267
  O   3.21815554556515     -4.50011471111689     -1.07109475794045
  C   5.17770411579522     -3.59379553658625     -0.07764042340323
  O   5.84277877262008     -4.61157860753689     -0.08102434602673
  N   5.68372892982951     -2.37997020901163      0.27290950464671
  C   5.04311832678653     -1.14216880273499      0.11778985429649
  C   5.78990037807420      0.00646227061753      0.16851632503172
  C   5.17958003369553      1.27073487506084     -0.01504866618957
  C   5.94843925949495      2.47688082405796      0.03166698081714
  O   7.16468090015540      2.55302871327664      0.23420195150247
  C   3.78148464508610      1.30338463342760     -0.25510109200798
  H   1.95720655361730     -2.39634641860535     -0.55502383204720
  H   1.97866585107034     -3.02952735032441      3.63021030889052
  H   6.66868844343739     -2.37279373699759      0.49600193662044
  H   6.86088938400372     -0.03307742695379      0.32961521233312
  H   5.36023308706641      3.40204527376219     -0.13224243694616
  H   3.28578655840626      2.25365659197726     -0.40771262351220
