25
Coordinates from ORCA-job 5117optt
  Br  0.98650447798197      0.17282361685763     -0.21074834122472
  C   2.89745318316584      0.18894144130245     -0.08881341109631
  C   3.55073809128860     -1.04546759800727     -0.01199511982433
  C   3.07164530102099     -2.46872514049158      0.03245989200643
  C   2.29145216614292     -2.83266910819057      1.22072390796597
  C   1.66568690547615     -3.11723536896744      2.20311518257304
  C   4.40370293298733     -3.26606047066007      0.01419943239903
  O   4.52314964767655     -4.47084608918292     -0.02206592422070
  N   5.41899642349614     -2.35887506507884      0.03402281617022
  C   4.97475134106613     -1.02575722467932      0.00420095768574
  C   5.68225484224326      0.12954440920290     -0.01837059210571
  C   7.16095870584019      0.41173304994497      0.01108877172904
  N   7.22463219626349      1.85436082613213     -0.25378049366015
  C   5.91758903837682      2.43980022803928     -0.14056416982836
  N   5.67999824132075      3.71535036383534     -0.14319718259776
  C   4.98424795781174      1.37090171150716     -0.06767145402112
  C   3.55973585812429      1.39070673533439     -0.11726807541815
  H   2.49557812574336     -2.77579001692714     -0.85219887590768
  H   1.10966416737521     -3.35265404123413      3.07719722613527
  H   6.38000713611554     -2.65405764518425     -0.00226628230409
  H   7.71510448435500     -0.15105463913248     -0.74777673460828
  H   7.59215706441795      0.16075361686853      0.98960162352708
  H   7.91639025501516      2.34957414393548      0.29072386531176
  H   6.54907136537449      4.23121903295357     -0.26622883849659
  H   3.02853009132001      2.32848323182219     -0.19138818018963
