24
Coordinates from ORCA-job 5120optt
  Br  1.01505479099137     -0.09673103194920      0.16667212636907
  C   2.91085760775444     -0.01212549084187      0.05785176589173
  C   3.58762109556921      1.23326576389226     -0.03031078454773
  C   3.14581206906334      2.66462755433088     -0.08437056811463
  C   2.33742495173608      3.02547840340232     -1.25200567300521
  C   1.68517568546416      3.30578122178533     -2.21797352458482
  C   4.50116177359873      3.42827211134017     -0.11442356205112
  O   4.64585474974678      4.62879849418824     -0.12281516827048
  N   5.48049530067727      2.48835568624930     -0.11442184729028
  C   4.98290755887256      1.17006477773804     -0.05830290742457
  N   5.77997068766717      0.13792323440717     -0.02533851376164
  C   5.08412486590559     -1.05631968158219      0.03766249875461
  C   3.67635553663786     -1.14127362218864      0.08509085043878
  C   3.27645646483533     -2.58370937869437      0.16517187299745
  N   4.55659265741880     -3.27699382489827      0.32396508456388
  C   5.64439933089164     -2.37558478759977      0.10816787271394
  N   6.88331997510517     -2.72440887015065      0.02202961043458
  H   2.61056124074562      2.99873737115804      0.81469648927067
  H   1.10937860537085      3.54178482631625     -3.07901559785988
  H   6.46399566617698      2.70307208751953     -0.12177099227331
  H   2.74948683065878     -2.89143304628621     -0.74559369000268
  H   2.60805072748184     -2.77387615370171      1.00994137625861
  H   4.64737681748502     -4.13045891435169     -0.20742421861788
  H   6.96456501014532     -3.73124673008297      0.15751750011092
