27
Coordinates from ORCA-job 5122optt
  Br  1.66407051030188     -0.43573978419731     -2.01038298227998
  C   3.18247411285895     -0.12670963455940      0.01513977015260
  C   3.68973211775540     -1.32906247483646      0.35739833474901
  C   3.07377318988719     -2.69485474160053      0.43707244083947
  C   4.27456064216452     -3.57922042684583      0.05947312102133
  C   4.31726940586675     -3.74659622101549     -1.45847799333627
  C   3.24799729618263     -4.66528004922584     -1.97260346453693
  O   2.60074263426647     -5.41258574457263     -1.28717177153382
  N   5.41691367680465     -2.78793090570216      0.56417697144011
  C   6.77384949066356     -3.24833318620422      0.42962074996714
  C   7.41564568857489     -3.00003584019684     -0.87538820724399
  C   7.94602622654508     -2.78313681556286     -1.92719657080386
  C   5.09909975222097     -1.44726389087723      0.46528501042589
  C   5.93370321105426     -0.36707461703309      0.39373225257409
  C   5.35392623504298      0.92591058471516      0.18138917386740
  O   5.92256585020487      1.99052249895048      0.14517382889694
  O   3.96327935884770      0.94742708253512     -0.04104328336084
  H   2.23658556250658     -2.80940271492580     -0.25002968402587
  H   2.73337686581436     -2.92799971824393      1.44932650456138
  H   4.25855523503944     -4.55325342657315      0.54929598712647
  H   5.27369872572529     -4.15122289615690     -1.81092625412948
  H   4.19721008591621     -2.76942365899377     -1.94303789838029
  H   3.08694044243073     -4.63760372544392     -3.06723259871287
  H   6.79307923074816     -4.32082565009266      0.63637809899234
  H   7.38110018381980     -2.76344347444156      1.19921795794710
  H   8.39934838203637     -2.56999694618720     -2.86518885268645
  H   7.01147588672014     -0.42686362271190      0.41499935846939
