27
Coordinates from ORCA-job 5125optt
  Br  0.29506220579610     -1.35208182902986      1.47697554145373
  C   1.48847307197220     -1.08876488528384      0.00784033956985
  C   2.74676249420825     -1.67414584193403     -0.02094535996474
  C   2.99495584344257     -2.96362633398802      0.70708613284394
  C   2.42738739632974     -4.14663792825847     -0.11672486377580
  C   0.98207905719503     -4.01293911234718     -0.63891285028320
  C   0.90991644979648     -3.38388446973240     -2.02257450833374
  O   1.68520937538718     -3.76223455575443     -2.88836934570119
  N   -0.08599346854256     -2.50036049235307     -2.33710867866506
  C   -0.82819874717857     -1.52863824718398     -1.55301656912875
  N   -0.29263905881671     -0.29023139132638     -1.41059129471950
  C   1.02681108630348     -0.33937394059398     -1.09855750167168
  C   2.05880810918376      0.20652270824466     -1.88462686955033
  C   3.34757784500331     -0.25383079059655     -1.70424830076957
  N   3.68546068430382     -1.24128415272496     -0.86855890387252
  C   -2.18434889078253     -1.79866698994172     -1.34348630822435
  C   -3.35932722529807     -2.03814304809330     -1.15160387780797
  H   2.53483002644491     -2.94563533255942      1.69421725600632
  H   4.06982143012972     -3.10414728926838      0.82318944674577
  H   2.49692448815212     -5.04458871773648      0.50173517463757
  H   3.06528812789336     -4.30475657751431     -0.98817148173340
  H   0.30705751602915     -3.52821185689158      0.05990853051419
  H   0.59315791193758     -5.02279926174038     -0.80131583609575
  H   0.03576553290174     -2.20509182087370     -3.30213816653022
  H   1.80530422673281      0.86798372734299     -2.70342232185884
  H   4.14858381426150      0.12643077509630     -2.33110581441184
  H   -4.37272930278642     -2.26486234495744     -0.93147356867292
