25
Coordinates from ORCA-job 5126optt
  Br  1.24256106684540      0.19435330405236      0.33873413516689
  C   3.11237638148354     -0.07365209907357      0.11273566333011
  C   3.68919583553332     -1.28426971197746      0.08589253155027
  C   2.91835294619782     -2.56528618058657      0.22793983888209
  C   3.67523262338385     -3.66649743643373     -0.50265835628825
  C   3.00768675470882     -5.02170355406417     -0.36565891804938
  C   1.72407278122912     -5.18937194811519     -1.12614200717238
  O   1.26676572128299     -4.39951132589367     -1.90440243778126
  N   5.03935693325053     -3.77821926679582     -0.01358555467673
  C   5.79263267990583     -2.59260283939378      0.22450645701809
  N   6.99374600303808     -2.67192497715973      0.68802718191379
  C   5.12830687448606     -1.33935587956158     -0.05501734688022
  C   5.78804620638611     -0.11505146323904     -0.32447320516917
  Br  7.57743499136012     -0.04157100604412     -0.93929824604972
  C   5.13834772386793      1.13935775624000     -0.33002062720271
  O   5.56240799352480      2.24750108068636     -0.56402683177650
  O   3.75220883143953      1.10077268064853      0.02088044986134
  H   1.91354800278821     -2.45667789988511     -0.17998653810696
  H   2.82583217591518     -2.84223760771790      1.28670412130559
  H   3.71212725317461     -3.40192055593360     -1.56333377638816
  H   2.80432737829013     -5.25737990265951      0.68707363579307
  H   3.68251767431862     -5.81113836971504     -0.72161144197507
  H   1.19646967831771     -6.14751638635670     -0.93663000499963
  H   5.12656193708238     -4.41464194632733      0.76892351543283
  H   7.27888355218922     -3.65045446469357      0.72542776226209
