28
Coordinates from ORCA-job 5128optt
  Br  1.78926314477202      1.72687036783447      2.65420039172758
  C   2.65862777087643      0.97946692097776      1.05530040536049
  C   3.57283613919898      1.75173403367483      0.43408966440417
  C   3.65593596609603      3.24739628346741      0.52558235224610
  C   2.78305263774163      3.90299059627658     -0.57136487684830
  C   1.31953146274772      3.42877195177803     -0.61350579276201
  C   0.37283806962284      4.53804722190527     -1.03910746765052
  O   0.57866768255401      5.71690089171733     -0.94111900492023
  N   1.13223637359015      2.33461755497468     -1.55451431150965
  C   0.62763324746573      1.21741411888363     -1.21366443806197
  N   0.04352688885747      0.81969425606229     -0.01967800440705
  C   0.64657414910141     -0.39306868465594      0.61399725135274
  C   2.15370307977082     -0.28402925453995      0.63138278700117
  C   2.88475392933725     -1.05833259351670     -0.30134290823126
  C   4.05475032332781     -0.70541781017890     -0.97746449866080
  O   4.76768558087577     -1.37572023472563     -1.72000550657573
  S   4.55510345977754      1.07762718357119     -0.85911714028860
  H   4.68649284158164      3.58620573173757      0.38882335920641
  H   3.32567784236887      3.58842909411974      1.50590752736448
  H   3.21332930649299      3.69883080201863     -1.55345024107231
  H   2.78667200407115      4.98403312248311     -0.41837807252361
  H   1.00638320235617      3.19466972712393      0.41673127508420
  H   -0.58517354249166      4.16300508230390     -1.45222053246656
  H   0.64380682183560      0.42419382171556     -1.96113779154516
  H   0.01441536553061      1.56572962633336      0.66182799151849
  H   0.35392154218134     -1.26977128422383      0.03499754426715
  H   0.18589076738719     -0.46664378858154      1.59991136864501
  H   2.49686394297247     -2.03664473853681     -0.57268133065423
