27
Coordinates from ORCA-job 5132optt
  Br  0.99761244617444      0.85542675443520     -0.78612834959291
  C   2.78495269003163      0.34046142831498     -0.31617382713953
  C   3.23262636158462     -0.94675991522080     -0.32493471717857
  C   2.33727528327015     -2.13423864365595     -0.56381406947246
  C   2.18455133446358     -3.09694871065406      0.61597564258735
  C   3.51454142964097     -3.66037680521620      1.13630418779275
  C   4.32621931397688     -4.23221079439898     -0.01136722457159
  O   4.11093343366178     -5.33169776746334     -0.45110984002538
  O   5.27357841767483     -3.47591136919282     -0.58359075800238
  C   5.59996634556602     -2.18858867055244     -0.03102893919674
  C   6.84320099996317     -1.63757342656725     -0.74167596022735
  O   6.78905546940941     -0.22959875235487     -0.56218393136729
  C   5.43248349903665      0.07360726434422     -0.44214301377953
  C   4.64570632833863     -1.06752487254942     -0.27110563557408
  C   4.94407496745963      1.37989297876743     -0.48701199398795
  N   5.51551147855561      2.51776184958857     -0.69292811887345
  O   3.56543030704607      1.44978836372787     -0.17818478094398
  H   2.73220176062412     -2.69274157089449     -1.41917585013231
  H   1.34566732322875     -1.78832042520821     -0.84959866709055
  H   1.55037541498886     -3.93117191388541      0.30658121920975
  H   1.68307126899931     -2.58574977723941      1.44081094445393
  H   3.32109195165042     -4.48720041962714      1.81869787931675
  H   4.04632198135612     -2.88020286643202      1.67430941982235
  H   5.83792268998180     -2.35133340880366      1.03069239342688
  H   6.77053338950473     -1.89332663993094     -1.80495560483201
  H   7.78387759742385     -2.00557577790479     -0.33263993804110
  H   6.50321651638791      2.34111388857399     -0.86062046658060
