25
Coordinates from ORCA-job 5140optt
  Br  1.36153857302288     -0.64826917901846     -0.83976921588853
  C   2.79776367472702      0.00634088486480      0.23643657540560
  C   3.42824954981999      1.20587008581136      0.03808981066795
  C   4.74379403382928      1.48775186278242      0.54548787190990
  C   5.22593737363092      2.78298296151805      0.74559020986465
  C   4.43735612639561      3.92133657666566      0.53199624162522
  C   3.21871922537868      3.89449170050819     -0.09122808905648
  S   2.69744244314473      2.50176251319161     -0.94293327230641
  O   1.25066400250091      2.46486043089245     -0.90638933257047
  O   3.30929964034391      2.41655006638094     -2.25337001711995
  C   5.63390056050071      0.34314339680365      0.77275685067928
  N   6.99706373021188      0.61817610557432      0.62105644364264
  C   7.92198488756756     -0.48882185392661      0.58156613009687
  C   9.27950250833282     -0.03109219812234      0.28863999667499
  C   10.38532554228683      0.34456185123401      0.02389968106655
  C   5.17966958899908     -0.89110556561863      1.06904630388333
  S   3.46836472938379     -1.17883062835827      1.33124292370827
  H   6.20286927042087      2.90408465419430      1.19357171103179
  H   4.78508093636305      4.86756910806690      0.93450253224198
  H   2.53145273111286      4.72574168496199     -0.14437217704144
  H   7.17745043231109      1.32981341489646     -0.07405170564334
  H   7.63613583337955     -1.24350490319673     -0.16648557664341
  H   7.91579400883354     -0.99268269986062      1.55324527279961
  H   11.36519389319032      0.68110549557076     -0.21401345454825
  H   5.81144670431199     -1.76683576581621      1.11048428551965
