24
Coordinates from ORCA-job 5142optt
  Br  7.11423361365710      0.23974406255706     -0.03786237163588
  C   6.20177144465632     -0.47508878457330      1.46237015715433
  C   6.95653091049401     -1.17043528586836      2.60282991747751
  C   6.14857003929463     -1.94907711692321      1.68703470645785
  C   5.63794062782722     -1.71726562799144      3.09358641822928
  C   4.62345186128867     -0.62150263986143      3.16278157597638
  C   3.76102132183503     -0.23573222469205      4.10911338049339
  S   3.50514725665880     -0.81583304687649      5.76378337816151
  C   5.08981969040247     -1.39211012257239      6.26888022381788
  N   6.11098075649831     -0.55001939809130      6.03335454303003
  C   7.12629584161466     -1.05110914972863      5.34583890598985
  C   8.11227470990756     -0.38385736642722      4.62958264212404
  C   8.28211964134795     -0.79352542319364      3.24553295293913
  N   9.34489379231933     -0.61764458618184      2.54433139551960
  C   4.95151216291140      0.19132622904367      1.95616055278899
  N   4.40275501803862      1.18995461057992      1.40903681448808
  H   6.23662272365239     -2.78846804090731      1.01712217499127
  H   5.63077620588179     -2.54322216113939      3.78516163666861
  H   3.17016917117860      0.65454218094026      3.90294258222517
  H   5.23282459300197     -2.47404861691353      6.17679977801804
  H   7.06303372289466     -2.12124693304679      5.11963722332723
  H   8.46170409472820      0.60560536211856      4.89478892493011
  H   9.16819149768591     -0.83084200908196      1.56448885890276
  H   3.56535930222424      1.45885608883088      1.92770362792476
