22
Coordinates from ORCA-job 5145optt
  Br  0.99970324700297     -0.31264236071247      0.52816239617461
  C   2.86567997613185     -0.19119429662432      0.24659807371354
  C   3.63513143726571     -1.36523475848067      0.14183531587119
  C   3.29090508496791     -2.72441459373117      0.18129774077242
  C   4.37815048333347     -3.59445613413075      0.06887012808254
  C   4.36524586340392     -4.98799052465850     -0.01154640446240
  C   4.35017852123201     -6.19387592486672     -0.09222485310940
  S   5.89433335054866     -2.70187661773060      0.00312244108299
  O   6.65615072645164     -2.81079101832574      1.22624695260222
  O   6.61920058083838     -2.95042370401186     -1.21955906999390
  C   5.03522670014772     -1.13370097906878     -0.01117585787684
  N   5.64455888013889      0.01393039265647     -0.08590606780874
  C   4.88237858612896      1.11055828835688     -0.00713616028014
  C   3.49696779670016      1.03260153399221      0.17627658154943
  O   2.80749109448838      2.22104140915215      0.34312400297113
  C   1.95925106015539      2.60418105511125     -0.64153951813809
  N   1.25243557583645      3.63961494467932     -0.58791860230604
  H   2.27324947031306     -3.07462106302484      0.27266588692204
  H   4.33984486537837     -7.25253259164906     -0.17222614478854
  H   5.35837595020794      2.08039129031993     -0.06662459492906
  H   1.94775925408918      1.94324012273212     -1.50652136195616
  H   1.39778149523889      4.11819553001518      0.30217911590721
