28
Coordinates from ORCA-job 5150optt
  Br  1.34370105202629      0.67473820794137     -0.01958003507128
  C   3.25921881686072      0.27707897314972     -0.12008068416748
  C   3.75857116563194     -1.00229669452152     -0.05810691586879
  C   5.20049444365104     -1.10118430853359     -0.06400506624837
  C   5.94795308842330      0.07587127097459     -0.28732205692788
  C   5.29563697364963      1.27270769163875     -0.36355490061212
  N   3.94596531572408      1.41134276897590     -0.22572297652268
  C   5.77217276183591     -2.47993591520858      0.03245498758239
  C   5.17790906832575     -3.23365248532290      1.22757739104068
  C   3.63629122070997     -3.15771173319300      1.17538626629826
  C   3.14854526541690     -2.39892938711478     -0.08201362987603
  C   1.61807533143023     -2.47186937993886     -0.15461887938567
  C   1.12209973519384     -3.84816219895223     -0.22605499275188
  N   0.71510942850333     -4.91967114755377     -0.28021402013708
  C   3.75677704326222     -3.09167665800516     -1.32224228398923
  C   5.27351119046357     -3.03415943659601     -1.27998155807448
  O   5.97133686214351     -3.29808454417145     -2.24972530783615
  H   7.02686040616084      0.03251171520490     -0.38010714999567
  H   5.84436070765607      2.19596396135444     -0.51522299397198
  H   6.86141320132993     -2.46991648162044      0.04151783470678
  H   5.55097233252061     -2.77710179937403      2.14670950618963
  H   5.51065983304701     -4.27507184563327      1.21220275205267
  H   3.24095107901966     -2.64791183023869      2.05649652097047
  H   3.20832415154559     -4.16299294303545      1.16173095730970
  H   1.25161966652217     -1.94104717295537     -1.03328510962287
  H   1.16319605693572     -2.00215124208268      0.71706812329365
  H   3.40937196478166     -2.60284829572163     -2.23931410360345
  H   3.44490183722842     -4.14083908946621     -1.36299167478114
