26
Coordinates from ORCA-job 5155optt
  Br  1.31203382260715     -0.26692499388269     -1.53184562889637
  C   3.08425194064234     -0.19920298186799     -0.65696487223084
  C   3.51865886475982      0.98810548653226     -0.06311972373052
  C   4.94288999001194      0.99583399721064      0.22984703864279
  C   5.62971370671485     -0.20679666092422      0.16958173369955
  C   4.99626830606460     -1.35815739216953     -0.25655496768121
  N   3.72306057457974     -1.31307998653802     -0.78290104684994
  C   5.65031715478097      2.31134830182439      0.39391957687680
  C   5.44996418176378      2.99090362420550      1.75516975114446
  O   4.16962572864124      3.54124941747548      1.92812573236484
  C   3.11235707781156      2.62212088060083      1.83499022003018
  C   2.74625245459638      2.18664201997623      0.38143036585895
  O   2.95637053847315      3.33745147717240     -0.50503512015649
  C   4.18893262104367      3.66585083019312     -0.94874856978869
  N   5.35166758635125      3.28451657931777     -0.65830421968918
  C   1.22370267542452      2.06116818122033      0.35263237917086
  O   0.56327909439025      1.75180394012511      1.31023062859473
  H   6.68690212364713     -0.23942766150538      0.41886900190352
  H   5.49389630704515     -2.31815819212812     -0.28415855947678
  H   6.72451492037449      2.10807170976247      0.33389045114273
  H   5.66043318617684      2.25404661734581      2.54180112288221
  H   6.14350576421232      3.82925480646120      1.84689717441918
  H   2.25131057914654      3.12129293541265      2.27268151069725
  H   3.32692786387598      1.71731750249856      2.41391736696719
  H   4.07402142094293      4.43160803289609     -1.71471906531995
  H   0.76214151592131      2.36816152878504     -0.59763228057530
