25
Coordinates from ORCA-job 5156optt
  Br  7.46261001155100     -3.19681708139495      1.29631058751353
  C   6.34385114605627     -1.64302496438332      1.54682180742552
  C   6.98359176915405     -0.40958920252383      1.78045244376014
  C   6.11957950790752      0.74256445533276      1.91143593137059
  C   4.76173088387783      0.55718492330125      1.83925697824796
  C   4.25020487033457     -0.72533574354044      1.63217462850596
  N   5.07812880382310     -1.82765810446249      1.46777341641352
  C   6.89828145110644      2.02488085884416      2.07423916351900
  C   8.18640332197956      1.59311968658156      2.80494870171644
  S   8.62167201027672      0.00517438225581      2.06510477866854
  O   9.28335026774936     -0.83372089885823      3.04016952761512
  O   9.38150589875739      0.30086107384156      0.86289175028226
  C   7.21487128666543      2.70739088036439      0.75687501027549
  C   6.82533793436459      3.97600865895725      0.82545825766862
  N   6.27795539944310      4.27664973434717      2.08594389821420
  C   6.16455236199560      3.12813351918783      2.84487825899619
  N   5.55173135080342      3.08490874596339      3.95353810309681
  H   4.08511432271182      1.39749892941779      1.95367111888796
  H   3.18853635995725     -0.91847553074662      1.58494318285651
  H   7.98601152179074      1.40570467596003      3.86076369000591
  H   9.02028388415289      2.27943888900051      2.67383387376986
  H   7.71143665732263      2.20484024704385     -0.05693664409067
  H   6.89946045113906      4.75318225316406      0.08052936215068
  H   5.69130178724245      5.07001472594441      2.27729231694141
  H   5.56249673983703      2.13006488640206      4.30862985618841
