22
Coordinates from ORCA-job 5157optt
  Br  1.77826297362880     -0.60065035317162      1.04714956871257
  C   3.28832710310670     -0.16728500681334     -0.05909166785559
  C   3.67130147060719      1.14930450102432     -0.17261472055158
  C   4.84293182068267      1.43987799089901     -0.93767006924860
  C   5.52827176070289      0.36720679182712     -1.52104487066641
  C   5.00011335287695     -0.89240069145847     -1.37993674952536
  N   3.87144410806498     -1.18137521800357     -0.65459162305818
  C   5.18266620881667      2.88244704875099     -0.69831826221955
  N   3.89285329828100      3.51282585168484     -0.33182703722580
  C   3.26104148145723      2.45068071730456      0.49682349539214
  C   1.83039676162454      2.72012767748208      0.63390304548793
  N   0.71954201514667      2.99720987909405      0.66892198503095
  C   3.97842645087618      2.46015546925453      1.84885269296559
  O   3.44028693589704      2.31538563574938      2.92559945023603
  N   5.34233427026130      2.61168843125325      1.70541875525406
  C   6.05446169717650      2.85313310922291      0.53079534540882
  O   7.27351886469625      2.93183885346842      0.53633967084188
  H   6.44720807043719      0.51356773656673     -2.07524917352874
  H   5.47522835486263     -1.74413893301967     -1.85113105515923
  H   5.69238528831483      3.41529504323658     -1.49828609640756
  H   3.33898449839904      3.58946375986761     -1.18073591709633
  H   5.89001321408269      2.53464170578028      2.55169323321296
