23
Coordinates from ORCA-job 5160optt
  Br  1.06234204339455     -0.15578499574100      0.24113432588728
  C   2.99876135814491     -0.12223134331862      0.07021371925839
  C   3.59508764958014      1.10718787726102     -0.02806778974232
  C   5.04338923828881      1.12042304727827     -0.17857193030064
  C   5.70526634602801     -0.10962083429473     -0.13374143882969
  C   4.96451791688191     -1.26400499199048     -0.01856225951745
  N   3.58791457510098     -1.29566298564367      0.06862269369916
  C   5.59085343851117      2.53675994664872     -0.13978179290673
  C   6.49827633849835      2.89982644396842     -1.23898639349485
  C   7.24432630259274      3.21183134042995     -2.12626658417697
  C   4.28673867136462      3.27938489188579     -0.15430247526471
  C   3.15761274986838      2.48044491172591     -0.04326366455090
  C   2.04391568642745      3.34731147319633      0.00336510476963
  C   2.54277191775406      4.63906876109980     -0.07188765531598
  N   3.92385163528509      4.58530809485573     -0.15252978716040
  C   1.86625146669990      5.88021892293166     -0.08244097285542
  N   1.33624465470209      6.90332679256135     -0.09160034460871
  H   6.78588878462933     -0.17391759004397     -0.20519662394870
  H   5.45170358234535     -2.23142298742149     -0.00260630915465
  H   6.14853880126597      2.75223953852256      0.80162883616742
  H   7.89005684032182      3.46692504891039     -2.93069447256904
  H   1.00163226640202      3.08809131991086      0.08347145593900
  H   4.52405773591232      5.38029731726716     -0.28393564132372
