25
Coordinates from ORCA-job 5162optt
  Br  1.69489780279858     -1.96278720106226      0.85932662944249
  C   3.38645703255726     -1.47441153945464      0.12946380177473
  C   3.69232283469308     -1.34769894550718     -1.19164557306130
  C   5.01336968314078     -0.81893679935578     -1.47769057287442
  C   6.00246573000515     -0.91681307224726     -0.52047097303737
  C   5.70678894021986     -1.34297920901538      0.77828893476431
  N   4.31127601640865     -1.21228041366449      1.08657016814126
  C   6.39129432429192     -2.42203391643916      1.52577752548533
  C   6.01865913409609     -3.70530375225380      1.19209863517083
  C   5.22342704147645     -3.96267012994810      0.05635852224601
  C   4.56874554837662     -5.10314664274694     -0.41412624712141
  N   4.43477675037256     -6.30269130250116      0.01145749532752
  O   3.92284286074541     -4.71711650458590     -1.69585986966198
  C   2.67011989588480     -4.26687525085802     -1.55835713742455
  N   2.22766328333743     -3.14688243906500     -1.93106958260938
  C   3.00064627190231     -2.04894674212938     -2.31642754698653
  O   3.10925586191211     -1.68949006156274     -3.46578603651220
  H   5.23852859518967     -0.58175039360229     -2.50805159825573
  H   7.04368029306444     -0.84440381765507     -0.81403772630742
  H   4.05900376944704     -1.45404908243853      2.03264122002223
  H   7.08418858016626     -2.21880906394583      2.33259813167189
  H   6.35208651126122     -4.53486096159794      1.81214621274979
  H   5.13697725244587     -3.15300705439309     -0.63793320495324
  H   3.88450441643546     -6.85397322208594     -0.63883352270858
  H   1.97802156977085     -4.97408248188406     -1.09443768528228
