27
Coordinates from ORCA-job 5164optt
  Br  0.60029705719187      0.79736314153545     -2.62277888371103
  C   2.33239614500601      0.76989295460806     -2.14354939209451
  C   3.49101401509449      0.74515277541589     -1.83105610122810
  C   4.90158564363719      0.72294196058732     -1.45311137196390
  C   5.51538988376810      2.11928270639173     -1.39303853060493
  C   6.97925467367615      2.10131424871471     -1.00302956071560
  N   7.52987769597090      0.96525072744610     -0.79168863288809
  C   7.60620156200646      3.41155696110352     -0.90292278527685
  C   8.93453332859705      3.62123440990607     -0.87829555947850
  N   10.03186480770547      2.78534405801528     -0.94960947226370
  C   9.79417201442974      4.86866955120975     -0.81265455161833
  C   10.97115229508813      3.92868883466076     -1.16437105220370
  C   11.37209199153643      4.14639994464863     -2.59660815853942
  O   12.19199192734789      3.38111691569503     -3.17002470692257
  C   10.71877327258606      5.26119156803824     -3.22495325921345
  N   10.84800811330300      5.71125602017790     -4.43043392408301
  S   9.60303716479686      6.11845997556382     -2.10000522021038
  H   5.46241110248670      0.11197758508349     -2.16184715075516
  H   5.01660481291082      0.23249626102192     -0.48529112393095
  H   4.96983920483810      2.74015796403350     -0.67653829276298
  H   5.41698368538514      2.61884642618495     -2.36027168171520
  H   8.49422531464680      1.08427861984299     -0.48724894994246
  H   6.97136962027133      4.28920239814350     -0.90384095903106
  H   10.05652581266486      1.98814675101998     -1.57818806369399
  H   9.82206750910194      5.33092038395243      0.17113533679873
  H   11.82645727110627      3.88678087270959     -0.48736120953032
  H   11.53187407484612      5.10507598428937     -4.89041674242053
