25
Coordinates from ORCA-job 5166optt
  Br  2.24215420004782     -0.07185219528976     -1.36592272444130
  C   3.09874996537681     -1.84227698589593     -1.00865762987764
  C   4.17453008709753     -2.23386700205859     -1.90987386415304
  C   5.31304677517897     -1.26795750863261     -1.84823136313263
  C   5.70472293272293     -1.07370251573406     -0.58201582242879
  C   4.98384454566844     -1.85452485476659      0.44957536635878
  N   3.62270135872996     -1.91336520330303      0.29552684465290
  C   5.68243784420358     -2.73283617538070      1.25076078408203
  C   5.19955194270524     -4.07735502666484      1.21514180844855
  N   5.93696041784585     -5.13169764309356      1.30642285879605
  C   5.41696255316384     -6.24896691779522      0.60764871182370
  N   5.26605524075887     -7.41666898814430      1.06744910180809
  N   5.13602909325098     -5.93257066621329     -0.75668867813273
  C   3.79040438086597     -5.73605102863881     -1.14478628608747
  O   2.90500393788056     -6.52224569757546     -0.87049069319167
  C   3.50996008445945     -4.43725535313032     -1.76486003997168
  N   4.45547510494177     -3.52476508445774     -1.95428053352119
  H   5.79908269082005     -0.80221379583328     -2.69751470339625
  H   6.57729971545788     -0.49970094162045     -0.29408698042496
  H   3.06463159568996     -2.24320396429622      1.07078674867486
  H   6.74834317798064     -2.59037199091752      1.37365873363428
  H   4.16836842845644     -4.17151894750504      0.86309801679606
  H   5.48824189121313     -7.39201725251535      2.06179491405022
  H   5.66688417073208     -5.11543704771815     -1.03896374456958
  H   2.45855786475113     -4.20857721281914     -1.91449082579659
