23
Coordinates from ORCA-job 5170optt
  Br  1.65688524400549     -1.18961743927767      0.38326768751273
  C   3.45304184925162     -0.58548368054276      0.38926139260553
  C   4.06083691127599     -0.10037920546391     -0.71590988278540
  C   5.43996911061640      0.34281486080768     -0.48721673157633
  C   6.18193073495541     -0.22093660433929      0.48413153045537
  C   5.50891320868315     -1.32611597481912      1.17270592182704
  N   4.17787657222194     -0.99562872741279      1.50433616605380
  C   5.95727699572032     -2.59966539278818      1.12122396021178
  C   4.95646955295998     -3.62192621008012      0.76001316126626
  O   3.87070944341085     -3.77161965499293      1.25657553762279
  O   5.40311030872384     -4.34043476397684     -0.31222411651606
  C   4.58169503305145     -4.50660339015532     -1.43618128431128
  C   4.06302772614582     -3.42201753804255     -2.09387246796040
  N   4.21577943622348     -2.21683085680948     -1.55425368985070
  C   3.83356999372762     -0.97747812937729     -1.91598003706290
  C   3.35407131680850     -0.57501734556015     -3.17151462564510
  N   2.96960773255710     -0.26511047479666     -4.22360197251752
  H   5.88992330830686      1.02363422768567     -1.20164238634527
  H   7.24652037687966     -0.05581948311832      0.58471491870040
  H   3.70120976951682     -1.72068636077473      2.02755318016755
  H   6.96511263818074     -2.75719731177362      0.76437045443917
  H   4.51812709035506     -5.52604376281179     -1.78086002942804
  H   3.51533564642183     -3.60583678157979     -3.02189668686344
