29
Coordinates from ORCA-job 5171optt
  Br  8.69477250238084     -0.90115808296399     -0.53549211874973
  C   7.79863508304650      0.29470188254493     -1.80492235463492
  C   7.35276619774598     -0.18510109442425     -3.09898660538524
  C   5.90666328648209      0.24061014937754     -3.27185621928279
  C   5.87598080464605      1.78731938991540     -3.20376253832438
  C   6.81420016909476      2.34663500843426     -2.14582620747406
  N   7.57749488056254      1.49052249629958     -1.40497031915852
  C   7.30985265955929      3.70439086441452     -2.38993215183059
  N   6.64398639831895      4.67926676099688     -2.90759771756833
  C   8.79489005695520      3.63485647657662     -2.43143652576385
  C   9.31120932191091      3.41878993285414     -3.67630488248921
  C   10.20210191798336      2.35005663087670     -4.01001936903740
  C   9.63336507374006      1.44629032289660     -4.93524169892061
  C   9.50238823461968      0.21513760544606     -4.28442444511584
  N   10.40482275251532      0.14686170559324     -3.23835943277121
  C   10.91671011272855      1.51273380524203     -2.97174398897291
  C   8.14996789782922     -0.25702207333034     -4.21469455010685
  H   5.50348195989028     -0.09741788576665     -4.22953399586673
  H   5.28441397354170     -0.17537239064106     -2.47600706588147
  H   4.84156412760380      2.10826362965384     -3.02948353567008
  H   6.16271644522457      2.20413887240184     -4.18117454881598
  H   5.65373110718539      4.43237878951912     -2.92954034885850
  H   9.26624509903533      3.18317621197480     -1.56846712241351
  H   8.70705207341908      3.78667745464237     -4.50339434746374
  H   8.94564449862527      1.75630283870000     -5.70991036487275
  H   10.13100827958656     -0.39972098649774     -2.43708890268495
  H   10.67934960004327      1.81590691830049     -1.94773903227749
  H   12.00405925164048      1.53690868109408     -3.08746073607494
  H   7.62992623408483     -0.31813391413104     -5.16762887353335
