27
Coordinates from ORCA-job 5172optt
  Br  1.38314323629681      0.71130831690505      0.43886097158976
  C   3.25250967805177      0.34200014656355      0.01012947423079
  C   3.67651393000776     -0.96128405386597     -0.11061077491167
  C   5.10724172487800     -1.15555241475139     -0.20491796804593
  C   5.87972825687280      0.03093999237346     -0.40512200218875
  C   5.28400475621059      1.25440114576623     -0.34981471503292
  N   3.96597135316029      1.45543225701328     -0.08113756915208
  C   5.72412865333416     -2.42361985472318      0.02582301123057
  N   6.97352073855875     -2.72635400293402      0.15770245821777
  O   4.85881600577484     -3.49526369885867      0.18226658787298
  C   3.66919067276325     -3.37184700526525     -0.54781235833404
  C   2.79983296881607     -2.19478335775421     -0.09334534266182
  C   2.23392922583535     -2.49298315435040      1.32303629955042
  N   0.88367364690768     -2.95761897022797      1.06494398250694
  C   0.40744283164182     -2.70450382529683     -0.18115135969084
  O   -0.73586167881433     -2.88535961685484     -0.54845467181647
  C   1.56303615475566     -2.19320182663057     -1.01978802794311
  H   6.94300918866558     -0.03035234079669     -0.60016951948686
  H   5.86841665127081      2.15566891312520     -0.50384433701574
  H   7.52792151252745     -1.87660358208159      0.12722173868839
  H   3.11830276711182     -4.30713072586081     -0.41689770714258
  H   3.89806972775405     -3.24500865646967     -1.61308791513539
  H   2.22959210769062     -1.59211229290840      1.93758909668040
  H   2.83623161223530     -3.25693800589739      1.81901119108902
  H   0.23536319735546     -3.20427205912269      1.79489255009991
  H   1.30701998762703     -1.21777107743156     -1.42281182826755
  H   1.69725109271054     -2.87219024966463     -1.86551126493118
