25
Coordinates from ORCA-job 5173optt
  Br  1.57363440551495      0.51099318587195     -0.61091214531756
  C   3.47457284247986      0.15760552944354     -0.54752468942130
  C   4.38644580018445      1.19190520671382     -0.62777034451590
  C   5.75977640302920      0.85101235424012     -0.36530039988492
  C   6.05835685922160     -0.53010770978211     -0.20445479689087
  C   5.04776160877735     -1.44374985515782     -0.23168779428307
  N   3.73621168887570     -1.12450374883296     -0.36838173787839
  C   6.75121459047232      1.84786349312887     -0.16883115205965
  O   7.93904121468790      1.64077081909817      0.16709339396788
  C   6.27449881433448      3.27606741073310     -0.34903249474659
  C   5.77267627375196      3.90957993805253      0.95071487620549
  C   4.43748527373485      3.28676332266968      1.34255471444651
  O   3.52895857047842      3.30877629383879      0.24795148571595
  C   4.06533423470143      2.66257028010349     -0.89486682379434
  O   5.22953694589028      3.33865301733888     -1.31891547606916
  C   3.11815630780425      2.88081105182914     -2.00543388539255
  C   2.42689537378516      3.10730194851561     -2.95422713283800
  H   7.08630999055297     -0.82206408322605     -0.03727062226628
  H   5.25384479101377     -2.50270364194904     -0.11280688428220
  H   7.10013078913637      3.85571495518262     -0.76153329218452
  H   5.63720674671599      4.98298593208445      0.79425174205472
  H   6.51393997979061      3.75581640230365      1.73723396769945
  H   3.95194779585645      3.85246996751092      2.13722914166259
  H   4.57743073514658      2.25702991296143      1.68719804633082
  H   1.78663196406300      3.27943801732720     -3.78427769625811
