25
Coordinates from ORCA-job 5174optt
  Br  1.07783828259592      0.14996367184764     -0.09293520194377
  C   3.00815441227540      0.19060343238342      0.01210985276885
  C   3.65537428603813      1.39423692789354      0.02718147755235
  C   5.07709433838797      1.39235402018094      0.09826909932868
  C   5.72094751610580      0.12751006843361      0.15894066308893
  C   4.93718592727648     -0.99428363196474      0.14142382786379
  N   3.58055191307428     -1.00526478674780      0.06691826060073
  C   5.60217022791233      2.70966600188865      0.09265725449547
  O   6.77798709929779      3.10086631083051      0.20131566801780
  C   4.42461809233524      3.67113307357368     -0.08978120031215
  C   4.38707360016145      4.78558115728246      0.94432256489820
  O   3.06010271150688      5.30558994927270      0.99761049945431
  C   2.18674823957038      4.38689525924246      1.58686352375059
  O   2.51248577502489      3.04767477244953      1.31084736048396
  C   3.13843084036906      2.81784239001978      0.04451347672768
  C   2.12608490748192      3.09316249393519     -1.06087103574217
  O   2.41156502428922      3.30603420889507     -2.20640217433905
  H   6.79884850167044      0.05821154371369      0.21739411324811
  H   5.39540714592632     -1.97734358712502      0.18860572701583
  H   4.45962166894466      4.10403715539479     -1.09340719929492
  H   5.04345007439085      5.60801831778467      0.67194713394885
  H   4.68547910208553      4.40994367815275      1.92931971342309
  H   1.18561264214673      4.64131952957253      1.22359048500516
  H   2.21856013143252      4.46431379787693      2.68068472684521
  H   1.07360753969972      3.09293424521296     -0.72111861688553
