24
Coordinates from ORCA-job 5178optt
  Br  3.82363168980110     -0.94612217473028      1.70201671517575
  C   5.80819965534149     -0.80816609797173     -0.56697695475177
  C   4.98419315557432     -0.87296689699373      0.32773478514035
  C   4.77243884088999     -2.70610119981164     -2.81393359030277
  C   5.19671388224613     -1.31129001189035     -3.32321664308122
  C   6.51479889584697     -0.83842836977073     -2.76753505531115
  N   6.75360711837960     -0.70697810848895     -1.45859448069535
  C   7.56868049342084     -0.71924517726289     -3.70954890255249
  O   7.46600217507751     -0.64287420235158     -4.92972546015323
  O   8.88281187653184     -0.87235785086937     -3.18579214728740
  C   9.28610844592601     -2.15447308063747     -3.05795432142650
  N   10.50788258455691     -2.41253477294755     -2.85911511264484
  N   8.22442630446844     -3.07168975841043     -3.06643852241112
  C   7.65137341661612     -3.39352218234979     -4.13348418789113
  O   6.42529290174108     -3.95342790267987     -4.14728897836062
  C   5.70908341199991     -3.88881705576177     -2.94648294065387
  N   5.80507367006738     -4.87185089211186     -2.17747009445655
  H   4.50240225748862     -2.64330481751627     -1.75991224154387
  H   3.86595398517002     -2.99034163912973     -3.36055688696675
  H   4.38545179872333     -0.63319518774513     -3.03708598963206
  H   5.26195140680305     -1.31024014555091     -4.41019642235612
  H   10.61026755826904     -3.41548259337970     -2.73665787827433
  H   8.01074044967079     -3.21894722434159     -5.14607371506525
  H   5.22091402538934     -4.72464265729658     -1.35671097449762
