26
Coordinates from ORCA-job 5180optt
  Br  1.51881316502278      0.10755242184429     -1.29748284400752
  C   3.33372038110801      0.17324166124199     -0.74186027344796
  C   3.97787204826384      1.38017707047101     -0.56041066015957
  C   5.29472928198152      1.33649573426230     -0.09810058235014
  C   5.92045618251264      0.13831121717031      0.16639414183127
  C   5.17289415279483     -1.00841952115432     -0.08669690137103
  N   3.92075372571376     -0.99721269790482     -0.53115499407949
  N   5.79576726640078      2.66806005288491      0.09393414653154
  C   5.05542663801894      3.17221338815673      1.30912244679307
  C   3.56980499985894      3.28668130589500      0.88776394847695
  C   3.63123251140916      2.85772604932730     -0.61149876795361
  C   5.04166279447744      3.39311162951093     -0.96937818725250
  O   2.54569484084848      3.15454942670792     -1.40379136563081
  C   2.11642882791063      4.52098610789301     -1.37383052606901
  O   2.97846922750089      5.41284259805868     -1.23515932625998
  C   0.75226257913497      4.62857438263005     -1.54565340461347
  C   -0.48845890644542      4.74089907514361     -1.53418717218013
  H   6.93633031421701      0.09111327346447      0.53384162349934
  H   5.60554297278510     -1.99073096851974      0.07270475165883
  H   5.47785043527803      4.14431354164117      1.55821480659546
  H   5.22866381824812      2.49201682514251      2.14171861448000
  H   3.21072717351792      4.31289687440976      0.93078635567689
  H   2.90408982630221      2.64085031548591      1.45821592597757
  H   5.11768968760775      4.46918540763559     -0.85274413321448
  H   5.36956364217000      3.07938047803086     -1.95960653850022
  H   -1.31698758663856      4.82318435057036     -2.21814108443098
