22
Coordinates from ORCA-job 5181optt
  Br  1.53848373914005      0.87477529902461     -1.82324771802914
  C   3.14540868228008      0.51710207154368     -0.84708053874814
  C   3.80276854242348      1.54970431818732     -0.22729407582500
  C   4.96528035838360      1.23485139837142      0.52869270865228
  C   5.39000748244497     -0.08820260583125      0.57383477778096
  C   4.64802240512970     -1.01870275857663     -0.13727884492978
  N   3.54935567077140     -0.74164199145606     -0.84148588752561
  N   5.59523062672377      2.33585012656953      1.10200486557184
  C   4.83269760085645      3.33204645215842      0.74516886752429
  N   4.98981877248060      4.64193694370615      0.62336359471921
  C   4.05042863142933      5.09766090064602     -0.35379315218386
  C   4.15211958111018      6.44498041090368     -0.75377930041717
  O   5.00401277251301      7.23391430103463     -0.27193081014482
  N   3.24713514028409      4.12637480391303     -0.79983558919679
  C   3.52754903490020      3.00265132952129      0.07294965542388
  C   2.35080416593193      3.05289844880159      1.06530062511846
  O   2.43268273555687      3.30794961460008      2.23444253468679
  H   6.26986991947982     -0.37450361809634      1.13260840229727
  H   4.95222595901743     -2.06027447376057     -0.14497373922311
  H   5.77707217656445      5.21393623617513      0.88779885576056
  H   3.44506508689411      6.76069597714691     -1.53317499454400
  H   1.38296091568440      2.90699681541734      0.55470976323188
