25
Coordinates from ORCA-job 5183optt
  Br  1.89038644770449     -2.13422683024376      0.70901558428282
  C   3.59672346349333     -1.30262569259823      0.62733750198161
  C   4.12946189023474     -0.80457011986629     -0.50732142375100
  C   5.46260287934110     -0.26523631636660     -0.44516839192269
  C   6.31209165419039     -0.75110694062013      0.55173163245580
  C   5.77611246263250     -1.57151615167574      1.53107800755202
  N   4.37139794530109     -1.35293350575855      1.76403132373503
  N   6.25656616787088     -2.77602417713503      2.01899901427296
  C   5.77647381606555     -3.77511887469668      1.26895886445113
  C   5.28740587482983     -3.59005083656086     -0.02890258882252
  C   4.18263116407029     -4.21397926267403     -0.66563103640399
  N   3.52026877096191     -5.23557787043059     -0.23854216330678
  N   3.75675167910004     -3.62374593759409     -1.91227667901851
  C   3.50441642575093     -2.46044575418602     -2.31383308830736
  N   3.54587013533346     -1.13492277921177     -1.76993478355775
  C   3.13746906992560     -0.11660684921971     -2.59580392386928
  O   3.16899137492198      1.05712434587581     -2.32505457957655
  H   5.83443448066548      0.30690523440566     -1.28415232286667
  H   7.38718057254914     -0.72764136316084      0.41765341861817
  H   4.00818347739694     -1.93560989655976      2.50501707337846
  H   5.76173571987351     -4.76366331571436      1.72787207170755
  H   5.61596046795324     -2.69611052080077     -0.52334028155364
  H   2.78603634201177     -5.45544346700619     -0.90696343121671
  H   3.14215285893424     -2.38138981141735     -3.34102583116874
  H   2.76669485888748     -0.48248330678409     -3.56574396709334
