25
Coordinates from ORCA-job 5188optt
  Br  1.76827027681492     -2.44320699223217      1.56448248186671
  C   3.17366832617416     -1.72645937892708      0.48054663496129
  C   3.28374509243961     -1.97753847781160     -0.83651908396444
  C   4.43685457390833     -1.32821093366426     -1.46950383309518
  C   5.52677401654828     -0.99542094858300     -0.75043600305972
  C   5.49844020458362     -1.29961070373041      0.68433562199812
  N   4.17310757936555     -1.08182303123615      1.18828224157782
  N   6.23011205350608     -2.44568062540604      0.97378975697148
  C   5.61114362764379     -3.41474957975566      1.55010120103599
  N   5.90561261381290     -4.75176975837597      1.33481233742105
  C   5.01489407485564     -5.20587486967015      0.47307983833032
  N   4.10680467792394     -4.39037445074337     -0.03150568352202
  C   3.25707724634828     -4.36004727920613     -1.04301771645388
  O   2.94355493576832     -5.63317175752983     -1.60253933211314
  C   2.36497007336275     -5.88902596933582     -2.76726073744116
  N   1.91383774509269     -5.06131016307252     -3.61060375626154
  C   2.71470626152927     -3.18682456825410     -1.48521467487193
  H   4.44212428300770     -1.25617135448226     -2.55194701294899
  H   6.45590300298673     -0.70018745830649     -1.22289159603679
  H   4.04875690051520     -1.03341990455280      2.18625321712766
  H   4.68043222279847     -3.23848530436185      2.10363755279796
  H   5.08025389460861     -6.26446204097183      0.20068806288608
  H   2.33391825043942     -6.97445416186175     -2.89922916081105
  H   1.54364106330156     -5.57673223334961     -4.40367349782966
  H   2.05539700266408     -3.14798805457908     -2.33366685856496
