26
Coordinates from ORCA-job 5189optt
  Br  5.98452304516915     -0.18023087903408     -3.93039167003391
  C   6.40057800679507      1.10976158595388     -2.57475042783392
  C   6.76603674423120      2.35133007310081     -2.90290753562417
  C   6.96234542190853      3.39822175627274     -1.82490067132065
  C   7.02182542688301      2.81034589680229     -0.40600669932717
  C   7.42378587617038      1.36684923300927     -0.52221346397580
  N   6.43638184513399      0.59848384443597     -1.25660880305991
  N   8.53300795361020      0.84166570463039     -0.25931529772651
  C   9.64925646515796      1.72965341768194     -0.03644436493335
  N   10.33134537814082      1.74377501978212      1.05736146349488
  N   9.84171569784088      2.43408259190452     -1.17173367666580
  C   10.98568089367751      3.02104378905515     -1.48788984231016
  N   11.19438714227705      3.63657697960369     -2.66643428427404
  C   10.35776163883568      3.66527654997300     -3.65881698335205
  O   9.16874995365894      2.93227871147753     -3.66136154235596
  C   8.16569920195391      3.14919758242776     -4.49468437621254
  N   6.97058426088463      2.81041242641397     -4.22312955783918
  H   7.90777337312133      3.90049065913811     -2.01630722127506
  H   6.15665545799467      4.13206695544739     -1.92044793294479
  H   6.03378801603297      2.84162064194724      0.06433295800384
  H   7.72211154081200      3.36909674330031      0.21188275788138
  H   5.51832042753844      0.58637159320832     -0.82279480142493
  H   9.93531217281218      1.06171137773382      1.69970935701944
  H   11.83439434272914      3.02123925459009     -0.80467040059315
  H   10.57618550114692      4.17433090911725     -4.59056657077294
  H   8.40479421548320      3.62234758202644     -5.44791041254348
