24
Coordinates from ORCA-job 5190optt
  Br  1.65881271311161     -1.63390079833798     -1.21120185213987
  C   3.48583811424268     -1.20935224893204     -0.95095427504268
  C   4.44484821204646     -1.41194761181703     -1.88203162764234
  C   5.77709651666150     -0.96796659624592     -1.51065912958008
  C   6.13299980645381     -0.97692950434405     -0.18220682104007
  C   5.12430517456624     -1.18180336258799      0.77527237786035
  N   3.82976885927161     -0.80458305106049      0.34065620234485
  N   5.13222519216100     -2.18416747995929      1.78172686424769
  C   4.75225557762715     -3.31607620784092      1.29106562210137
  O   4.27510384151395     -4.26062331036948      2.23447649740354
  C   3.14350417308212     -3.96970230884679      2.87651984096095
  O   2.38818066331305     -3.07312077822282      2.64845397872396
  C   4.74951248761843     -3.71143149959142     -0.07417568467884
  C   3.69288071965883     -4.28526892297465     -0.75683767908812
  N   3.45543804777076     -4.25988498955231     -2.05962895159657
  C   3.92820849007928     -3.40694694760601     -3.00611822838732
  N   4.31827464782591     -2.16261678956968     -3.05311126642822
  H   6.51396052479241     -0.88469027287134     -2.29927188335912
  H   7.17341630697941     -1.02164059068237      0.12040721108469
  H   3.11178174703613     -0.98326157881142      1.03175958537335
  H   2.97635286538498     -4.72362217717284      3.65842121563085
  H   5.48064394283111     -3.19858193389291     -0.67419303497274
  H   2.94066907206032     -4.82083132341595     -0.17281943254745
  H   3.88692230391119     -3.86304971529425     -3.99754952922817
