24
Coordinates from ORCA-job 5192optt
  Br  1.01696189491949     -1.22746385841336      0.52655238091325
  C   2.83203305744020     -1.47129740551318      0.09674104558472
  C   3.25030022169021     -1.95895721929288     -1.10512226970159
  C   4.67705255609690     -1.91471985821578     -1.29263945464765
  C   5.52961151555627     -1.77704292990445     -0.25900425084912
  C   4.98022615335089     -1.78850107254133      1.06635227217514
  N   3.69889302396247     -1.29622522004538      1.14288372917202
  N   5.54673894610404     -2.23924574219719      2.14613918433508
  C   6.50898351216858     -3.20347005976161      2.04714199505799
  O   7.47144508900234     -3.30498266317146      2.76958942346396
  S   6.35515199231491     -4.55583907333478      0.80367816011461
  C   4.68908149473457     -4.51416903114869     -0.01962310428224
  N   3.60727423501041     -4.32254564114458      0.64728592241247
  N   4.83603335535187     -4.82359437834220     -1.31079087114127
  C   3.93738640919949     -4.72773190658658     -2.29748112375492
  C   2.87641206102748     -3.84776791999010     -2.62486138701920
  C   2.44411096073299     -2.64869354581267     -2.07903640557463
  H   5.04642135007295     -2.08627631179515     -2.29613998288112
  H   6.59996127441611     -1.85201797397239     -0.37630307147343
  H   3.30628905826858     -1.26355744428483      2.07394788163380
  H   3.81464986520165     -4.24472397763077      1.63926111343953
  H   4.10814952651266     -5.47080959592578     -3.07813242526272
  H   2.29492008749277     -4.20897634517608     -3.46991969575049
  H   1.46791235937211     -2.26339082579872     -2.34551906596418
