23
Coordinates from ORCA-job 5195optt
  Br  0.72728295705150      0.23697471277018      0.82353190574487
  C   2.58143109123468      0.15880313950580      0.45538527668627
  C   3.14966126184716     -1.03050064517439      0.18176316371481
  C   2.58011332966500     -2.37466481858449      0.10712553576564
  C   3.54486549250820     -3.23843318514494     -0.20363949826180
  C   4.85208097933391     -2.51933988331468     -0.36064750940901
  N   4.48756007095298     -1.14702376160626     -0.09599771948575
  C   5.36177028411381     -0.05858757109580     -0.13185000425804
  C   4.79618814017057      1.24588225608491      0.15036984857133
  C   5.59479376195284      2.41978835465915      0.12637281015314
  O   5.24297564461630      3.57793300565396      0.34007061533633
  S   7.37740596201781      2.33166075240714     -0.26042661333230
  C   7.68594672760534      0.64399409031963     -0.51398209730802
  C   6.69649615080963     -0.31252188752582     -0.42956930452466
  C   3.36165452904367      1.40920533101797      0.47216682492581
  N   2.73664036971196      2.49365470003737      0.75544128394236
  H   1.53693483208255     -2.58066567220509      0.28584527242151
  H   3.44165135801599     -4.30587015806078     -0.33094751326268
  H   5.27192036983926     -2.63486092059054     -1.36854716486127
  H   5.60962055587246     -2.87805451061460      0.34845186714401
  H   8.70786145602009      0.38442456224058     -0.74822138756558
  H   6.99613289966100     -1.33672546029247     -0.61284046231180
  H   3.39101177587326      3.27092756951318      0.72714487017484
