30
Coordinates from ORCA-job 5209optt
  Br  1.32972993515502      1.02742517225471     -0.03513356775908
  C   3.14800213575627      0.52923229453948      0.38309975742470
  C   3.58683063017621     -0.69073661686411     -0.05521134589418
  C   2.90600987328971     -1.87688815837815     -0.65511010394097
  C   4.09391840588388     -2.66126401862633     -1.23581959840919
  C   5.24432092962365     -2.32873087486023     -0.28214420337192
  N   4.95391130478052     -0.96911465727568      0.12125264465778
  C   5.71316510796756     -0.27099009272796      1.10031886423116
  N   6.83273838558394     -0.74603835246053      1.54650223694164
  N   5.22722179686261      0.92182200665416      1.51834973306712
  C   4.01079302557122      1.35501125292490      1.10555529355300
  C   3.69657392276447      2.77835176063557      1.47546149169984
  C   4.22773600725618      3.74684100017897      0.43964424982805
  N   5.37628272829500      4.29549218604724      0.45230021640952
  N   3.33399936468980      3.98275692383266     -0.59678021460484
  C   3.51917217611707      4.77504616024220     -1.71607303673243
  N   4.49936611035091      5.51020598024266     -2.02794928320398
  H   2.16250261314734     -1.60354316251454     -1.40478507532994
  H   2.39122800796367     -2.47948518489498      0.10628111589828
  H   4.32986547405506     -2.28080986676291     -2.23098005135251
  H   3.91097495596033     -3.73296767900935     -1.31015270222046
  H   6.22123345985218     -2.39852171545883     -0.76466794356487
  H   5.24852163655156     -3.00121909540611      0.58843003631670
  H   7.03782041950293     -1.64085053998886      1.11594760615005
  H   4.19761790827363      2.98756443372336      2.42112421721964
  H   2.62327918644490      2.93441344423061      1.60154439670165
  H   5.88990007284404      3.96438235818314      1.26558610443219
  H   2.49927900066234      3.41544390889255     -0.58391236781555
  H   2.65274192765816      4.72748359629231     -2.37862728757733
  H   5.22426349695958      5.43468753635397     -1.31305118275407
