17
Coordinates from ORCA-job 520optt
  C   1.54955678522807      2.91649978383766     -0.80633768331236
  C   3.01043399404745      2.70343632307552     -0.53764793126878
  C   3.50868149562269      1.44838400669283     -0.17272724363962
  C   4.85467635623537      1.06210188782584     -0.01511340117201
  C   5.30225826141817     -0.21944708721117      0.28787504348086
  C   5.87822689859836      2.15322642675469     -0.18796869032797
  O   5.71971144888150      3.23205592464205      0.73769981306234
  H   1.23518855148121      3.94636755672828     -0.60677535415212
  H   0.94128261330751      2.26857185710168     -0.16735724595708
  H   1.24590506049904      2.69614641463285     -1.84603769694738
  H   3.68733883590963      3.46219971859159     -0.92487282139035
  H   2.76632881568338      0.68251442214028      0.05832129017804
  H   4.61090014265738     -1.04874518820711      0.38703377599336
  H   6.35111871520962     -0.41810792072282      0.46826354769823
  H   5.82611121578683      2.55585963970542     -1.21186571934991
  H   6.88347459134361      1.75670850198118     -0.03324331524964
  H   4.76380621809009      3.33022773243121      0.85575363235441
