24
Coordinates from ORCA-job 5214optt
  Br  1.02029215202678     -0.19132073851509      0.04912842467573
  C   2.91509218892937     -0.04414331246031     -0.12044367169987
  C   3.69018690651077     -1.16151777298853      0.04505980327536
  C   3.41811171741793     -2.60890986296967      0.26866836194963
  C   4.70446666089360     -3.25689848582743     -0.27406215443313
  C   5.80416278129847     -2.19889725067921     -0.01463684139094
  N   5.08006063395893     -0.94888823956488      0.01451127087936
  C   5.65557111527227      0.25175864145108     -0.51922492720089
  O   6.86163334503789      0.20990800810882     -0.76813978304466
  N   4.84320742142767      1.30254390012357     -0.67824881626193
  C   3.50878824433650      1.17291872388694     -0.42349278376674
  C   6.52353853992998     -2.44981900558425      1.26801462731213
  N   7.76721080356605     -2.69631563152681      1.42517601297940
  N   7.88865818301889     -2.90047634866004      2.78016833220047
  C   6.71191685810740     -2.75666826558110      3.43954628012737
  O   6.44619698914756     -2.85348504858425      4.60504035048544
  O   5.81590041366699     -2.47986870934996      2.43605844741628
  H   2.52230984026022     -2.95442963866704     -0.24744458915593
  H   3.29994046140138     -2.83989829094233      1.33510159578811
  H   4.61891339999003     -3.39728268732262     -1.35171321260527
  H   4.93616281653556     -4.21915511770250      0.18282171882583
  H   6.57442977767045     -2.16561031716883     -0.78558762600721
  H   2.90166952211566      2.06648906021842     -0.50254191871720
  H   8.78757922747953     -3.01903360969394      3.20824109836866
