28
Coordinates from ORCA-job 5215optt
  Br  0.75653613807286     -0.48855736591319     -0.47674032355044
  C   2.63498222810736     -0.30564639812401     -0.22849345344579
  C   3.40097608608838     -1.43877502897621     -0.02339734185537
  C   3.10611939895229     -2.89861786977609     -0.08079889614298
  C   4.51736074958099     -3.51634379412384     -0.22431511914388
  C   5.46224784589665     -2.46276392966447      0.36667982374362
  N   4.78440707130022     -1.23035172904250      0.04130583567373
  C   5.36679743297979      0.04709575051277      0.19537589465570
  O   6.56936738591950      0.08583937959762      0.45797078021167
  N   4.56756325369942      1.12175179554612      0.01965134363873
  C   3.24188065660010      0.93429925905563     -0.21977201556665
  N   2.41727770229347     -3.36213121985167      1.13011869958939
  C   1.79243933276596     -4.56592069487167      1.18574603671754
  N   1.86564154966839     -5.52911791058658      0.34730290632799
  C   0.96556798242290     -4.80790772047891      2.44352206450648
  C   0.19657990798360     -3.64574562470044      2.87732020712051
  C   -0.40050047344270     -2.65668679793915      3.19446486873377
  H   2.46745614449576     -3.15760588159600     -0.93563970966942
  H   4.73714910631481     -3.65148517549044     -1.28517731215095
  H   4.59030227229446     -4.48189446439694      0.27547453624536
  H   6.46277812481970     -2.47245197284011     -0.05912300430114
  H   5.55296430359931     -2.58133612680045      1.45457555164703
  H   2.64143401274093      1.82388665545901     -0.37366073100920
  H   2.07532241608179     -2.62778685499688      1.73409267570617
  H   2.47209601573155     -5.29271156398860     -0.43477397480344
  H   1.64768030855203     -5.10621714859583      3.24416395036430
  H   0.30972800511561     -5.65147031629664      2.23535099685753
  H   -0.93015495863519     -1.77334725112044      3.45877570989971
