25
Coordinates from ORCA-job 5218optt
  Br  1.18612575673770     -0.09435661709274     -0.18362183624765
  C   3.06378400212389      0.11155006034728     -0.06388838526966
  C   3.60390511093419      1.40430356971441     -0.20591437617732
  C   3.07510741320355      2.72257042505265      0.26650958686458
  C   4.19991338471433      3.68533108197569     -0.14528097238512
  C   5.49463078470634      2.84493545196070      0.00495392359809
  N   5.01997702554976      1.49297807449242     -0.06816064614808
  C   5.87116811512807      0.45048324201058      0.10519733558706
  O   7.07986112250996      0.61787117990720      0.26124574692422
  N   5.26489327050753     -0.77130332986253      0.07169717476709
  C   3.84906929672853     -1.04442027159083      0.02768915066476
  O   3.51795357731670     -2.23353606726961      0.06857646446300
  C   6.15146904542018      3.11900786594301      1.34124554136632
  O   5.80628173790199      2.72107615221735      2.40786778984686
  O   7.19231565232360      4.01087017998921      1.17497680086022
  C   7.92860621401234      4.35371777644172      2.27211240230197
  N   8.81838552021853      5.23628409125437      2.23942997504120
  H   2.95519414428310      2.73849229022136      1.36273392495169
  H   2.11761064070103      2.98556606728968     -0.17999766262686
  H   4.23407847549975      4.59751355595871      0.45173665772996
  H   4.08999739871623      3.96096769855781     -1.19363117821287
  H   6.22816620211640      3.06226579315900     -0.77226726760986
  H   5.85037212690478     -1.57420767167550      0.23492395765400
  H   7.68369341839133      3.79181272929753      3.16645626649970
  H   8.88544056335008      5.63822667170047      1.30340962555669
