30
Coordinates from ORCA-job 5219optt
  Br  0.89407360011936      0.30867275132519     -0.24810592735823
  C   2.77596014515023      0.31007349008125     -0.03136253582347
  C   3.48659408311070      1.42314584784110     -0.29939483706085
  C   3.04021594687708      2.79425467173924     -0.71979510781288
  C   4.19956940796887      3.68422655274686     -0.23291641501094
  C   5.41594430215501      2.75600451610474     -0.31816895005792
  N   4.83586444746298      1.44630361685815     -0.16690443851835
  N   5.60945360510261      0.42180500008944      0.33933631104701
  C   4.88049738174390     -0.71936219177327      0.54655189293243
  C   3.48603897064668     -0.91466193773818      0.39875440344785
  N   2.79136709654468     -2.00989918955943      0.61305658711892
  C   3.92684916459953      4.14853728761650      1.19705708184292
  C   3.89127092680008      3.04552240531051      2.26454325128689
  N   4.20647810936946      3.82152062495998      3.46734146553470
  C   4.99538131310086      4.91278136116270      3.12449454952956
  N   5.63019751780326      5.72819321527085      3.87326225525219
  N   4.96890679671992      5.00685277832751      1.74667991135182
  H   2.07795070018343      3.05861557203229     -0.27972449134924
  H   2.92984806210656      2.83777775023946     -1.80631615702057
  H   4.31959451373809      4.57041949981538     -0.86081739801938
  H   6.13934545468879      2.93478440849114      0.48258757249921
  H   5.94513701537164      2.85763673254213     -1.27469690290884
  H   5.47166000362130     -1.55521371595912      0.90504298329763
  H   3.43523260525559     -2.74539339260611      0.90336904450860
  H   2.95951910055030      4.67087075075433      1.20623754338394
  H   4.64410271583292      2.27631080894249      2.07184007625598
  H   2.91411608824681      2.56953830399922      2.33118997415523
  H   4.49868708333996      3.31289435328830      4.28689710635358
  H   5.52019671265425      5.47196748997653      4.84956353371413
  H   5.11994712913503      5.92882063812075      1.36939761742807
