27
Coordinates from ORCA-job 5223optt
  Br  1.10999070664939     -0.25980502234278      0.57179767431643
  C   2.97995920062105     -0.07760374293822      0.26122825479877
  C   3.50436537543704      1.21386897578776      0.13673872648762
  C   2.94882086760364      2.49900635576317      0.24349705369175
  C   3.88845804210047      3.45560437549055     -0.03609125060281
  C   5.21516394760607      2.79792882821817     -0.29155562212827
  N   4.85130718821628      1.36917316753633     -0.30486444438620
  S   6.04453144080296      0.28469814343502      0.09573003653724
  O   7.08292268040126      0.40119037276885     -0.90568740648676
  O   6.49944802736701      0.53779487167674      1.44937314246633
  C   5.15917985500906     -1.15375404779703     -0.04834407269644
  C   3.77547302646410     -1.19661876966710      0.13030856572118
  C   3.34457958681554     -2.64450439187392      0.15968947731775
  C   4.54802912139255     -3.40274798780731     -0.42836352410626
  C   5.76994622165860     -2.53530771043109     -0.09537939336121
  C   6.33733883938825     -2.82904745872786      1.27626011649097
  O   5.92565566051968     -3.67812841020888      2.02797789858548
  H   1.91052160149581      2.66861909809224      0.48494779543991
  H   3.74973628175771      4.52484372489909     -0.02037781901921
  H   5.94946789908301      2.99132487003226      0.50474169587742
  H   5.68170746824568      3.07228963329235     -1.24288896355259
  H   2.42135021175712     -2.81355450638089     -0.39505388182465
  H   3.16627946615154     -2.94874526350350      1.19543059327549
  H   4.44895865394310     -3.46255534078630     -1.51294152948383
  H   4.64534724208422     -4.40949797459507     -0.02354454688294
  H   6.57691900203964     -2.61553972463705     -0.83248291693588
  H   7.15254238538913     -2.14993206529550      1.58985434046070
