29
Coordinates from ORCA-job 5227optt
  Br  1.04110830473890      0.05230632664677     -1.25604307403266
  C   2.83360803948516      0.01302841282209     -0.63850785204282
  C   3.54235489649166      1.15557919718372     -0.16053190140510
  C   4.90665853021971      1.00383898916655      0.09131468534292
  C   5.73954025905386      2.16943512468444      0.54682151748480
  C   5.10102188423040      3.46976561646370      0.11736548116371
  N   3.74945624286258      3.52397426267056      0.65831628301037
  C   3.08288752588113      4.78615560201421      0.36606098697601
  C   2.54570030584701      4.67402924255004     -1.07393255516473
  C   2.33741280880145      3.16153767410622     -1.26971908063380
  C   2.85850780964758      2.49677846682930      0.05915947253027
  C   1.72943151926138      2.34747447568953      1.00333971225852
  C   0.81813702385888      2.25457101737343      1.77663732909000
  N   5.58576460095221     -0.12583877691795     -0.05177653603762
  N   4.82276232392044     -1.20829262181151     -0.40359462996273
  C   3.49491965401706     -1.22949274832269     -0.81625645258901
  O   3.03657436274810     -2.28694445478712     -1.26336644077122
  H   6.74044462790916      2.06084537759262      0.12555852195012
  H   5.83106806957537      2.16394514908913      1.63708067715695
  H   5.12223703480727      3.54785869049876     -0.98293955609732
  H   5.64791324964111      4.32541256024685      0.52140089996246
  H   3.77702718657593      5.61429771172858      0.51307428771665
  H   2.25226362325159      4.90683430243615      1.06424291894845
  H   3.27442551817209      5.06094294927566     -1.78778047720054
  H   1.62498731958882      5.24272743563980     -1.20486542599785
  H   2.92369939122807      2.77074686779420     -2.10085635908214
  H   1.29956723455803      2.89979332121286     -1.45051759893637
  H   0.00915492831454      2.13084932522590      2.45388994764632
  H   5.33636572436047     -2.05215949710182     -0.59357478128365
