28
Coordinates from ORCA-job 5228optt
  Br  0.78608339428530      0.23055614195899     -0.19459883622046
  C   2.55558446097515     -0.38319559182623      0.03951931984722
  C   3.11183127702959     -1.38967712432301     -0.65775991977438
  C   2.44328223572530     -2.14478814282284     -1.79396411690332
  C   2.15517874996153     -3.66892966038395     -1.75938915005910
  C   3.26616939516597     -4.63675226035893     -2.20358770410657
  N   4.34986859807564     -4.96041773345172     -1.23545473279336
  C   5.67686840186928     -4.70308236428048     -1.85179691404106
  C   5.83797193566924     -3.18995598622232     -1.77622921528915
  C   4.98163866350619     -2.75653506759956     -0.84875479505809
  C   4.36859337866785     -3.96625379312562     -0.16847202586332
  N   4.49948760306012     -1.52418270445512     -0.48714635410024
  N   5.36629166614672     -0.38662656388507     -0.66979731239707
  N   4.86360713224336      0.74033155609571     -0.17313690673603
  S   3.71219578328150      0.62025302010854      0.95051319582248
  O   4.09030228370336     -0.13473939482578      2.12312670078802
  O   3.12553425329549      1.91616626059527      1.15990196046247
  H   3.06799407907165     -1.94958857310946     -2.67321656284937
  H   1.48908616659515     -1.65019965846167     -1.96758551028144
  H   1.35245762844167     -3.82197086579902     -2.48631303784779
  H   1.73092702392667     -3.96520843371286     -0.79803451321585
  H   3.70070522949116     -4.21657157321601     -3.11782714243222
  H   2.78846260855116     -5.57989930228823     -2.48236131494149
  H   5.70856355767574     -5.09049912903443     -2.87158928109604
  H   6.43307681031162     -5.24231690620818     -1.26822657495277
  H   6.47038933815065     -2.58263145319902     -2.40434345167009
  H   3.39802554110224     -3.78947428259089      0.28250333727659
  H   5.03982280402058     -4.30281041357807      0.62902085843245
