28
Coordinates from ORCA-job 5233optt
  Br  0.37546838370474     -0.13383135215035     -0.33456259690238
  C   2.90745649081719     -0.00006243716646      0.27491317503440
  C   3.62000969861909     -1.13866217004425      0.22614001014684
  C   2.93321543830426     -2.47852560896421      0.41819616487604
  C   3.53400518985142     -3.47422922261572     -0.57686733155928
  C   5.01661602952776     -3.62743438048256     -0.30379052744521
  N   5.69240603210068     -2.35087014812727     -0.17122475332648
  C   7.13715717135302     -2.44552898251939     -0.20067418622239
  C   7.77877753978531     -1.16405321101890      0.29363733284774
  N   7.16712174818707     -0.06969129823120     -0.42881184413456
  C   5.77774564767367      0.01992372917924     -0.16984142090857
  C   5.27072030048238      1.35062466000334     -0.06641383431092
  O   5.99013514096680      2.34864723375248     -0.13672098096647
  S   3.51461697626702      1.55951235794645      0.12638239052267
  C   5.03919531469229     -1.14292903525723     -0.03841172803700
  C   3.08098021986764     -2.96947789526673      1.79228725043870
  C   3.22765527809890     -3.38535467085585      2.90858584912986
  H   1.87157902826287     -2.32206011974724      0.21671689607814
  H   3.36865592290225     -3.08018079157814     -1.58141459273463
  H   3.05047805824794     -4.44916229441824     -0.50188089437229
  H   5.49601959546610     -4.17946034008106     -1.12082603900703
  H   5.16141687838703     -4.21354334669439      0.61337353807830
  H   7.48042665719922     -2.65830838792975     -1.22051217767470
  H   7.44025555727942     -3.28698479204496      0.43539614489202
  H   8.85043286194671     -1.19222609556970      0.09290723920455
  H   7.62805432823606     -1.08284857528055      1.38026040062805
  H   7.58302206857186      0.83781280930559     -0.25031823806191
  H   3.33637644320110     -3.72509563414290      3.90947475378652
