32
Coordinates from ORCA-job 5246optt
  Br  0.81281888116222     -0.08612645380733     -0.63110703021739
  C   2.60794861206443      0.22626079445600     -0.02655068758538
  C   3.25881274721260      1.50820492289426     -0.00386872028109
  C   4.59100247489968      1.47266065097243      0.46729876969681
  C   5.44719058512746      2.71152925180954      0.51345907811787
  C   4.97995237593281      3.67729228380505     -0.55329902171273
  N   3.57518080274160      3.93815791159452     -0.29968016556375
  C   2.65181942945968      2.80270111835583     -0.53444057924740
  C   2.36093508099108      2.67940726334110     -2.05467769963472
  C   1.54115926252223      3.84762051530247     -2.60560474004967
  N   0.31537956304198      4.11826433323703     -1.85598999567545
  C   0.62032561912758      4.34953030662140     -0.44256417159733
  C   1.35849103531818      3.18676659791896      0.21937939036318
  C   5.15942398029596      0.30232386593059      0.86672456824900
  O   4.50196280893084     -0.89531656372216      0.89585021344133
  C   3.19225635072904     -0.98316917671522      0.42101085715575
  O   2.70651249481239     -2.10216791158236      0.45256726913111
  H   6.49581127017417      2.43959599381872      0.36852651284858
  H   5.35486264298187      3.20945490104797      1.48334331812011
  H   5.17545303085330      3.24675514504901     -1.54824229675157
  H   5.51845673636791      4.62624742719708     -0.48987877808895
  H   3.26347360916055      4.72781447159808     -0.84806742246546
  H   1.81952292242599      1.75456537350223     -2.24732720159794
  H   3.31621727111000      2.60285090548883     -2.58259419821294
  H   2.12809959126981      4.77415237382839     -2.60882162930843
  H   1.27644269727648      3.65623603797355     -3.64820520230373
  H   -0.28019947993197      3.29661096890347     -1.91995056443658
  H   -0.31538424005630      4.54951648217378      0.08421552068528
  H   1.21025510562765      5.27092933634299     -0.38290500414953
  H   0.68617482566091      2.33357709542352      0.26475304222247
  H   1.64602276611775      3.44374194641881      1.24063402943900
  H   6.17861914659201      0.22001183082136      1.21701253940957
