29
Coordinates from ORCA-job 5260optt
  Br  1.10243025718545     -0.01082000114571      0.28260036583330
  C   2.99177409268421     -0.09230023060058      0.13247195113497
  C   3.65888918023444     -1.32441839516775      0.12870639611414
  C   2.86414407655763     -2.60857906416694      0.04904429525103
  C   3.71665250586536     -3.79151170926876     -0.38616155505774
  C   4.99993298306461     -3.79289786945997      0.42998306243592
  N   5.77755556351710     -2.58773340352862      0.23166359427129
  C   5.05583805357850     -1.36282223238762      0.16448957597361
  C   5.79323055841850     -0.16256260997304      0.08304652440488
  N   5.05053140765921      1.02671387584367     -0.02752350963318
  C   3.67287226525944      1.16384690045245      0.09030820542494
  N   3.08281789722841      2.31730362649574      0.13659548194192
  C   7.21421949762830     -0.06461467010792      0.08068817201146
  N   8.12656437583260     -0.88531037153209      0.52104320016530
  N   7.75123299388626      1.17014229814941     -0.42920530838261
  C   7.48058209994667      1.67647355052775     -1.65783843986029
  O   8.09734151033325      2.58131006785342     -2.18192866901318
  H   2.03345680855906     -2.46278173282706     -0.64244576828349
  H   2.40691838971260     -2.81830965832137      1.02274869759952
  H   3.97075801762312     -3.70051839347132     -1.44667280886678
  H   3.16917500892679     -4.72799271722173     -0.25396153735897
  H   5.63394966243879     -4.64809056993568      0.19041182596423
  H   4.73851054561455     -3.86667532276802      1.49239300956781
  H   6.44328509947631     -2.66780854833014     -0.52894574656101
  H   5.57264794464453      1.88015869477871      0.08919846705383
  H   3.76863839803467      3.06641924732867      0.07315337750819
  H   7.67302437512297     -1.66902640139630      0.98017739393684
  H   8.65084370429969      1.41953119515069     -0.03893125949300
  H   6.61618272666686      1.19387444503015     -2.13810899408293
