26
Coordinates from ORCA-job 5261optt
  Br  1.01401193309457      0.20246830410220      0.19447297139524
  C   2.90993564338245      0.11120220782914      0.07411569594452
  C   3.54743046311864     -1.14989660295934     -0.08176655251196
  C   2.77496187667327     -2.43224519331204     -0.15012059296053
  C   3.67072738463200     -3.60982248217088     -0.51030679755696
  C   4.98513887674930     -3.51233883918464      0.26189459843583
  N   5.68723819610129     -2.34619165446550     -0.23130451081330
  C   4.95257030216014     -1.13224358423548     -0.07836194825560
  C   5.62090175586628      0.04976618036212      0.04069760808932
  O   4.98101111101413      1.26336881255339      0.09853869678847
  C   3.58427127743344      1.34492278561686      0.16467391415142
  O   3.12433939487515      2.46815108362776      0.28518679243165
  N   2.96936402093553     -4.85145674112559     -0.23321294701038
  C   3.32325068433268     -6.04511973075272     -0.76832419728290
  N   4.27955040633475     -6.34494276675959     -1.55445304735856
  C   2.43337759841199     -7.13428984696987     -0.35245256499561
  N   1.71817007209667     -7.95591247459492      0.00135840578315
  H   1.95505082002825     -2.35957195134371     -0.87090639530836
  H   2.29822997777406     -2.64495722320771      0.82267266551335
  H   3.90635761702453     -3.57104159663905     -1.57918314244180
  H   5.59830409482181     -4.40053608166664      0.09492124025279
  H   4.74251513372101     -3.45842814379796      1.33545656043250
  H   6.60565268116803     -2.25796246706822      0.18140019244677
  H   6.69709620448532      0.14294616406072      0.01743436376456
  H   2.15073637173964     -4.81099774600735      0.35242924591688
  H   4.83880610202497     -5.52387041189093     -1.77886025485051
