22
Coordinates from ORCA-job 5280optt
  Br  1.06138743579444      1.41003138570084     -0.29457766049095
  C   2.77803542382704      0.63598476592837     -0.12831788055052
  C   2.98535522057866     -0.71187451808041     -0.07176851138297
  C   1.97501643314149     -1.71833065667619     -0.13263225594773
  C   2.16565826498642     -3.09509036606312     -0.07693144599366
  C   3.31398621600694     -3.89161035489071      0.04738823574529
  N   4.61388334150470     -3.60731280099309      0.15497532281794
  C   5.06746318752276     -2.34825681075439      0.15941312910280
  C   6.40939463376268     -1.99556180984175      0.26845825774635
  O   6.59436334436823     -0.62210636663345      0.24475832787656
  C   5.35890199431494     -0.11018123129833      0.12026232145454
  C   4.38862529483988     -1.05868056769377      0.06184942321492
  C   5.13590529500399      1.31544856334018      0.05641310046309
  N   5.98858607969684      2.27281567575490      0.09857795578015
  N   3.78923430670199      1.58456147385090     -0.06576320998097
  C   7.55759376373732     -2.79403204559007      0.39094113158701
  N   8.51015694908918     -3.43736953608157      0.49092629504639
  H   0.95549578090932     -1.36980584418202     -0.23147040587273
  H   1.25188305231440     -3.67813175092391     -0.13959113202632
  H   3.11300562387685     -4.96072987023139      0.06032541747549
  H   6.92312087681480      1.88536926672597      0.18754892968263
  H   3.54594748120710      2.56086339863304     -0.12278534574729
