30
Coordinates from ORCA-job 5281optt
  Br  3.51142566537236     -0.03051381628727     -1.34665834543492
  C   3.04002780070618     -0.67733005591658      0.39608422178830
  C   2.38474799811373     -1.87791700959887      0.55656859975860
  C   1.92207969739451     -2.69873246743966     -0.61040723092691
  C   0.52178595630461     -2.29222387440161     -1.11650785233811
  C   -0.35885456213057     -3.50345425998321     -1.45887745205900
  N   -1.20275693367248     -4.06299799577731     -0.40480017872464
  C   -0.62144465752197     -4.37479336678388      0.91650005167660
  C   0.57816400439092     -5.31248445213303      0.92145734622144
  O   1.65267484257059     -4.68040878123960      1.62212764799091
  C   1.24168650915748     -3.46518046645917      2.24801640066804
  C   -0.17881772122415     -3.22849024502685      1.80464445067943
  O   -0.95075328868183     -2.32995395004536      2.18928205167312
  C   2.11113807273454     -2.27568254786203      1.88885874367391
  N   2.44854719950382     -1.51347270681670      2.95325647515254
  C   3.06527802278409     -0.35693636913075      2.73593844469856
  C   3.40372301459071      0.12597581729819      1.48884438444305
  H   1.92852962801334     -3.74216581469024     -0.31649541448559
  H   2.64338169404078     -2.60393046468814     -1.42344440724858
  H   0.63591951323732     -1.66716477151343     -2.00701764699698
  H   0.01247404729606     -1.68438749503164     -0.36508984277652
  H   0.27813033433902     -4.30072337942330     -1.85708208431928
  H   -1.04492353542931     -3.23770451169315     -2.26714227712000
  H   -1.94626633755345     -3.39820888654042     -0.20989049864963
  H   -1.45849707205709     -4.84870660696945      1.44910947734956
  H   0.92057028414765     -5.55328243862963     -0.08990760310391
  H   0.34045965403450     -6.25576858028280      1.42191298527152
  H   1.31717242359285     -3.55747729232448      3.34039887203940
  H   3.31131964854016      0.22834597836382      3.61862148293337
  H   3.90007809740559      1.07577081102663      1.35769919816570
