22
Coordinates from ORCA-job 5284optt
  Br  1.13008654836151      0.08339719213818      0.80850682519290
  C   2.85656499254615     -0.00804745129219     -0.16605121159132
  C   3.63063513697931     -1.17968498211197     -0.09688621428183
  C   3.32717729201331     -2.55927629354830     -0.11277769229181
  C   4.53033628322068     -3.25146032486806     -0.05676492714121
  C   5.61048759250560     -2.33154311428732     -0.03417398738115
  N   6.93810392528780     -2.74739794621538      0.03876358289993
  C   7.90087965869236     -2.07731255646552     -0.37248049840340
  C   8.05706059790010     -0.78789453314729     -1.12624868052681
  O   9.38616782444847     -0.88620910985233     -1.65523626048997
  C   10.03251238208039     -1.90779362637670     -1.07089426835152
  O   11.18261375736123     -2.16214725059218     -1.24033382103988
  O   9.20167162526039     -2.60330714676458     -0.27481924707612
  C   5.05119944093002     -1.04305608048945     -0.04490953060669
  N   5.65794739296019      0.19073866342882      0.13770439382014
  C   4.88165343821699      1.19297768281233      0.15496454235760
  O   3.53719583931455      1.18746848356395     -0.02146877140535
  H   2.33549206950767     -2.98324009623458     -0.15097175741310
  H   4.65957762124612     -4.32395396694080     -0.04752734941863
  H   7.98062742246710      0.08964271955898     -0.48944893486890
  H   7.32824212630595     -0.70630604818451     -1.93255193199610
  H   5.24376703239391      2.20240578586893      0.30660574001320
