28
Coordinates from ORCA-job 5285optt
  Br  6.65474477505943     -3.49307016191049      1.87035634516905
  C   5.67636950992655     -2.19734517348433      2.95581705200373
  C   4.97354841856655     -1.22138108058261      2.26827496274791
  C   5.69373798311989     -0.60765725756892      1.14420177920315
  C   6.22620580014257      0.62497723206375      1.31907630565734
  C   7.60552812206065      0.89339686459324      0.90281260997919
  N   8.64043406714034      0.67853198010602      1.69055695243539
  C   8.54674304055635      0.07499560983611      2.89069932929938
  N   7.38385214368209     -0.19318888495902      3.54120614444415
  C   7.42758579740764     -1.39194237790302      4.08828161004245
  C   8.82632609163861     -1.97959545374347      4.03943713677308
  C   9.64932417533943     -0.82817950090055      3.41109929683923
  C   6.11230992299275     -2.06718880800358      4.32708172882697
  C   5.16013404715430     -1.23454144623747      5.15670919839982
  N   3.97277645513126     -0.79003398642331      4.41542009381674
  C   4.08138225279209     -0.39463992255147      3.09159278494702
  N   3.38759788682088      0.54880069161465      2.55792241232913
  H   6.15635942210938     -1.27481565167650      0.42731062855121
  H   5.83980158734783      1.22021575799066      2.13557331132459
  H   7.85457420679640      1.15779211602894     -0.12256018947519
  H   8.84697705449304     -2.88870281290846      3.43628648754138
  H   9.15576781622945     -2.25245199124681      5.04316223009630
  H   10.32186683346638     -1.14325755773831      2.61453581199684
  H   10.24630913749322     -0.32373740096879      4.17740342515776
  H   4.79370873318650     -1.81502576677818      6.00977156343127
  H   5.71139907171894     -0.37309915493048      5.55850374502351
  H   3.37205070472745     -0.18001239419379      4.95022873889195
  H   2.81758494289989      1.01015653247619      3.26723850454658
