21
Coordinates from ORCA-job 5288optt
  Br  0.76397152454008     -0.25889822748924     -0.34125934359087
  C   2.60194677773562     -0.17547940850800      0.25248884086016
  C   3.43650954287593     -1.28510107242161      0.10892556597708
  C   3.16466492205496     -2.68755142170045      0.13567777253489
  C   4.35860866937113     -3.36755685238701     -0.01086342010826
  C   5.42442857894891     -2.42215664300783     -0.11535287236282
  N   6.76956983112098     -2.74133385155107     -0.33719698992932
  C   7.66420392363357     -2.15463048769085      0.32865312643459
  N   9.03010425116336     -2.36843296082050      0.13636163116972
  C   9.82103812570343     -1.78116470464755      1.07810147557103
  N   9.26429863490840     -1.06018390702664      1.97384911374714
  S   7.58493210421211     -1.03018821034222      1.70629080635110
  C   4.84377542089749     -1.16378973756466     -0.05165324670349
  O   5.53810171714637      0.00362565740822     -0.35033303025159
  C   4.99261559846507      1.21588941674856     -0.31144668323299
  O   5.64615307218267      2.19334545160802     -0.55693768525912
  S   3.29168352685652      1.42948048178793      0.17164425800077
  H   2.18449822270111     -3.11612603497113      0.27839749837488
  H   4.50020600065703     -4.43809987643614     -0.01633115929777
  H   9.34451612142044     -2.98898515286775     -0.59023729977902
  H   10.89317343340468     -1.93066245812007      1.03922164149388
