22
Coordinates from ORCA-job 5289optt
  Br  1.09958286608925     -0.24858623402666      0.16157092856710
  C   2.97127930320380     -0.09059154118491      0.10407188972364
  C   3.63237480115091      1.10352776619040      0.15597008244265
  C   3.00605797194390      2.37075616616690      0.19758206721888
  C   3.72423754510579      3.51830849183580     -0.01046781692475
  C   5.12730833599036      3.54591818127969     -0.23752304266476
  N   5.84532321704692      4.60279168771050     -0.53766859848328
  C   5.81666007077065      2.25742892344761     -0.03115863212877
  N   7.09657527143882      2.25668428861328      0.06912902956275
  N   7.68878261964673      1.04243006605769      0.46203243813014
  C   7.07161063606134     -0.12894591530877      0.06693897097169
  Br  8.26152766732427     -1.57773029819329     -0.09216454293443
  C   5.74002447996451     -0.16792613645756     -0.10080898386008
  N   5.03751943651474      1.07847689040289      0.09734192749092
  C   4.98166130217879     -1.39740124357739     -0.37302814546027
  O   5.47126750806379     -2.47735258196545     -0.68736066308730
  N   3.63819630162581     -1.27749029692199     -0.18845004740497
  H   1.93416005414121      2.40130077748914      0.31834508861966
  H   3.20488382185148      4.47107355699842     -0.02831797424025
  H   5.21308014382133      5.40100097705806     -0.60267878232649
  H   8.67559195690471      1.07193438595713      0.25817295344208
  H   3.11029468916081     -2.12460791157152     -0.32552814665416
