24
Coordinates from ORCA-job 5294optt
  Br  0.63084250742314      6.25311032628638     -0.90294141282996
  C   2.38880932556538      5.63699181507937     -0.57796763114777
  C   2.65415930382983      4.34167548672475     -0.29301664533611
  C   1.73909311654400      3.20101513216590     -0.29830554047833
  C   1.85982994235496      2.36855036472981      0.75083368322209
  C   2.57959225422710      1.11446083589849      0.44892192974479
  N   3.79738915257597      1.31604570690261      0.09480944684390
  C   4.44086062161121      2.56136257963568      0.00795308227263
  C   4.03444404316733      3.88226052623088     -0.11283945713656
  C   5.08392523680543      4.94336499005775     -0.14093820592229
  C   4.68754077204858      6.23173574208446     -0.43030493088004
  N   3.35681868329752      6.56621478512785     -0.64886642469301
  S   5.80273535991710      7.56137823430916     -0.67321943125711
  C   6.78743719775249      7.43925318842636      0.79375377589938
  N   7.58437492444125      6.41809577140359      1.02958288870146
  C   7.40192517253982      5.19395811218064      0.52655338172953
  N   6.36180304396473      4.53262220815471      0.04687444296922
  H   1.48361137129381      2.78858803523720     -1.27214517653864
  H   2.15446704413622      2.81658445214277      1.70031856944991
  H   2.21842915393844      0.09522860106947      0.55036411715258
  H   5.51465743805096      2.45102078200952      0.02806169129429
  H   3.13277772915936      7.53458476752717     -0.81197432910251
  H   6.93133289003641      8.37333151929409      1.32256196921053
  H   8.29014371531889      4.56956603732136      0.61393020683204
