30
Coordinates from ORCA-job 5297optt
  Br  0.90939577206177     -0.27314599877256     -0.33371373982177
  C   2.82693925250963     -0.18731366104750     -0.14157877935120
  C   3.51861205905116     -1.33209840380353      0.19685967786041
  C   2.85332187810791     -2.66465166826566      0.43166823465646
  C   3.15911887843644     -3.65979446147279     -0.68110026541142
  C   4.51747969767262     -4.35715873843642     -0.55130440531957
  N   5.70316393920481     -3.52648323982906     -0.54345579185303
  C   5.74032588975571     -2.51814574962796      0.53441789739304
  C   4.93247366259536     -1.27715759966198      0.29136370953205
  C   5.56968828486202     -0.04379318354616      0.06870430329243
  C   4.86811309004529      1.08680027281573     -0.24782452705912
  C   3.44552987349039      1.07535457321210     -0.38827518966794
  C   2.78588280779552      2.28215257116431     -0.76471532440485
  O   3.37712870574477      3.35947588286004     -0.99563441291860
  O   2.15150458134359     -4.69272157346254     -0.62192512123448
  C   1.88768806616835     -5.34947845407669     -1.75774003893473
  N   1.13984522273754     -6.35840775227731     -1.85352825179519
  H   1.77478785588196     -2.55478558191936      0.49237482562418
  H   3.19057564088328     -3.08902274867931      1.38265075879372
  H   3.07367394811347     -3.14594918979807     -1.64563329631706
  H   4.61014445990902     -5.08867437582669     -1.36054040364749
  H   4.49021707016476     -4.92662259949842      0.38402256021264
  H   5.79126386481285     -3.04067462511947     -1.43016569829012
  H   6.78363587078595     -2.22730138600215      0.67582025312358
  H   5.43771130307791     -3.04519065187237      1.44746754529468
  H   6.65224083427503      0.00386512817766      0.14945168408243
  H   5.36040374223891      2.03498694403527     -0.42090174218595
  H   1.69114195120341      2.23884614487433     -0.85225578949306
  H   2.36397271800778     -4.93225363703462     -2.64705058657068
  H   0.78001907906273     -6.61165623710879     -0.93245808558933
