30
Coordinates from ORCA-job 5298optt
  Br  0.94683394243080     -0.02484013291771     -0.12282578307617
  C   2.88710792233574     -0.03214318881978     -0.02722447977012
  C   3.54613774265242     -1.20826310086920      0.29301856786545
  C   2.88565766283365     -2.51452629119435      0.63551819153328
  C   3.14013012723667     -3.63265683772475     -0.38295482006032
  C   4.53060291510684     -4.25733323133978     -0.27901684687169
  N   5.67740865521673     -3.38104111726505     -0.46860791425396
  C   5.82494617670093     -2.30619557684761      0.50993369478484
  C   4.95890921158677     -1.08960091621467      0.27024780512149
  C   5.55065542564952      0.11090716644987     -0.01372177779656
  C   4.75156782339445      1.25500583088029     -0.29038750813863
  N   5.34389203547098      2.42585707781369     -0.54627579239102
  C   4.83900765730318      3.71967359161415     -0.85983857962532
  N   3.58086514451174      4.05399783629446     -1.00147006954228
  C   5.93526015815144      4.62291463034042     -1.00528584315502
  O   7.15045984263811      4.28583951906211     -0.86692126311831
  N   3.41160809207609      1.13305538909656     -0.30186184789249
  H   1.81475510546412     -2.35525080616500      0.73247917584317
  H   3.23455625531042     -2.85695375530498      1.61812403024927
  H   2.98211526001859     -3.23849957251023     -1.39135880051629
  H   2.40497449372773     -4.43007157923968     -0.23264304136036
  H   4.61784209133728     -5.07238344149043     -1.00216636630447
  H   4.63765555147351     -4.71003762551942      0.71329627655840
  H   5.66783545617034     -2.98441178250815     -1.40192518846258
  H   6.86933890983293     -1.98854771835609      0.51808557480408
  H   5.61528207346882     -2.73271439752163      1.49586607405975
  H   6.63011622027925      0.20224733170381     -0.03791227525748
  H   6.36071024517638      2.47150995622218     -0.51136636492260
  H   2.98369827732747      3.24861787306814     -0.85133363775378
  H   5.65006952511702      5.65384486926281     -1.25147119055028
