26
Coordinates from ORCA-job 5299optt
  Br  1.07305556630282      0.38552127149583     -0.51733410605128
  C   2.87938445482014      0.18918353755432      0.18187434082941
  C   3.56244737327606     -1.03441987485071      0.02469438089360
  C   2.92514454452848     -2.29775572228790      0.01530340738937
  C   3.63454180491128     -3.46410589810153     -0.00838031609665
  C   5.07981790467823     -3.50145431788610     -0.02110754069182
  N   5.81240551623941     -4.58936967285102     -0.03856818115520
  C   5.70766883194853     -2.20337646605142     -0.02182916823490
  C   4.99789863927546     -1.03618145795798     -0.00222536600944
  C   5.64826934835838      0.26773761219218     -0.00994471897649
  C   4.90084217977846      1.36788867764098     -0.07496936841939
  O   5.42918986861474      2.61486751650962     -0.20326739891428
  C   4.76316118701358      3.63725089023676      0.51292930180062
  C   5.66442716876124      4.86077478794713      0.39581639261436
  C   5.08704714884079      6.02326742628563      1.06449824539940
  N   4.62302721028435      6.92748451736983      1.59385373559262
  O   3.55984811633148      1.39353706636892     -0.06447093411194
  H   1.84176194762404     -2.32797418592453      0.02312390766835
  H   3.10549290537572     -4.41201747168369     -0.02456220041500
  H   5.19633942691297     -5.40166756042495     -0.03799476926442
  H   6.79149893985979     -2.17828172792765     -0.04962850187104
  H   6.72424231648928      0.36146702390812     -0.00819875859408
  H   4.63396338698688      3.34984194042011      1.56004747277054
  H   3.77978711123880      3.83732090415134      0.08675323192080
  H   5.81923541868057      5.09815322877614     -0.65765992063356
  H   6.63950168286835      4.64730795509055      0.83524683256042
