24
Coordinates from ORCA-job 5301optt
  Br  1.73883880343320      0.79172133233920     -0.80709048927340
  C   3.44628824890610      0.16854031240408     -0.30753712625378
  C   3.83448980405512     -1.00099308880690      0.36146798224159
  C   2.99972108661602     -2.09224891066013      0.80813444626271
  C   3.43517010446880     -3.19425798458487      1.46693154545089
  C   4.75142966516512     -3.55985982617296      1.88423474542366
  N   5.91062433671497     -2.92430792672637      1.74145801376838
  C   6.14756876748366     -1.77750239367179      1.14947006041821
  C   5.23019087544277     -0.88644809372093      0.50186642456770
  N   5.62587837368137      0.30353825128080     -0.06981345220392
  C   6.97430629712564      0.71982804002348     -0.24543083751842
  C   7.37629348227124      1.92119804296594     -0.68172753248044
  N   6.71368342750960      3.06595423012223     -1.07284069086290
  C   5.41696093432722      3.08106035203994     -1.27877258191542
  N   4.42516250408950      2.20503090095028     -1.14260004456377
  C   4.53256022705375      0.98828240752421     -0.56756822173444
  O   0.66864373531145     -0.53524020141807     -0.68725882170403
  H   1.94747799024165     -1.99905716844977      0.57328721264827
  H   2.67361239996026     -3.92370901591270      1.72700928366867
  H   4.82946098473700     -4.50580711870103      2.41125846092932
  H   7.18200825634344     -1.45975049703335      1.18774847732221
  H   7.70873086484859     -0.03971621509351     -0.03949906566601
  H   8.45751320035576      2.01380374056060     -0.74768086073910
  H   5.05738562985746      4.03794083074161     -1.66104692778599
