26
Coordinates from ORCA-job 5302optt
  Br  0.99146960502895     -0.17511918890109     -0.08929759935822
  C   2.89700527567958     -0.09233161843119     -0.09120860327782
  C   3.55030648396715      1.16283982500536     -0.09154919804119
  C   2.92545995722581      2.42643161992772     -0.09136293489125
  C   3.63598206522332      3.59640846166283     -0.09175389385652
  C   5.08234600077802      3.62844553164854     -0.09234029617527
  N   5.80984711925402      4.71857684385900     -0.09259891754537
  C   5.70860739825502      2.33316938172071     -0.09259337140271
  C   4.99220087389827      1.16810096050569     -0.09225253053752
  N   5.62819057544294     -0.06166784481378     -0.09251836625904
  C   4.98988057371561     -1.27484023603491     -0.09273912647178
  C   3.59763892428935     -1.30267696123441     -0.09200824999822
  N   2.97730041859625     -2.53929554621444     -0.09216895092718
  C   3.69010926557392     -3.69765032084229     -0.09303578967778
  C   5.03958377112253     -3.70111864157092     -0.09374383388552
  C   5.79695588886619     -2.46053429666235     -0.09356175104224
  N   7.09762191967347     -2.33851495335646     -0.09414474755762
  H   1.84282677797528      2.46424824148078     -0.09094665395219
  H   3.10859642052191      4.54488598153260     -0.09163128760131
  H   5.19028766725857      5.52782938096332     -0.09233233494708
  H   6.79203611264135      2.29968103138102     -0.09306362805256
  H   6.63782322877465     -0.11966092898183     -0.09310618672695
  H   1.97167379986731     -2.55613760649375     -0.09172973654980
  H   3.10223062007438     -4.60547410077458     -0.09314373240508
  H   5.57145614866408     -4.64324754857034     -0.09445209354361
  H   7.53656310763200     -3.25534746680522     -0.09471618531617
