23
Coordinates from ORCA-job 5306optt
  Br  1.25199166223888     -0.35060672836080     -0.81718769666182
  C   3.09117458994971     -0.17038826538370     -0.35161996209825
  C   3.64808318331109      1.05407116949249     -0.15336468017364
  C   3.01108299482834      2.42984693028929     -0.15264211239754
  C   2.07202391128257      2.55716209818199      1.07216130434969
  C   1.48079301719434      3.89011779983120      1.17606853478448
  N   1.01128642135717      4.93538011796261      1.24045154112576
  C   4.20327845371614      3.34899856781067     -0.02268978250502
  C   5.33008849209390      2.59897028621713      0.17221665037305
  C   5.04700425579483      1.20347509578670      0.11391699398172
  C   5.87036936915112      0.05497383036735      0.20588528267957
  C   5.27775562347724     -1.17308698066973      0.02637296456177
  C   3.88624361799147     -1.35465366304427     -0.26162376447713
  N   3.47064416933248     -2.62542406859284     -0.41851888520578
  C   4.44683709345519     -3.48093740045686     -0.27487363108560
  S   6.01215816013324     -2.75696178812490      0.08031470666045
  H   2.41426931629125      2.59785585904505     -1.05480647426442
  H   2.65485209369394      2.36486228175874      1.97446320132605
  H   1.26438905825343      1.82501294813147      1.01859012505863
  H   4.12219326275322      4.42528306075352     -0.01275026730868
  H   6.32232121662085      3.00235425665773      0.33416837459376
  H   6.93158181257045      0.14334946924226      0.40274712523392
  H   4.33957822450908     -4.55065487689509     -0.35727954855096
