25
Coordinates from ORCA-job 5307optt
  Br  1.00259661277638      0.24338681545306     -0.40851781628200
  C   2.91202352694864      0.14730491432117     -0.17930576585958
  C   3.53533010160314     -1.12960021379604     -0.19789752893425
  C   2.75530951441596     -2.39551277660552      0.00155603442079
  C   3.57753982380477     -3.64798208494775     -0.33270220005272
  C   2.82122511722325     -4.85472131902885      0.01112116400748
  N   2.21084027725677     -5.78716218641399      0.28258693295827
  C   4.93167643352526     -3.58742752170220      0.40291146695827
  C   5.72888926282579     -2.39244689502816     -0.13851333809290
  C   4.95726169267020     -1.10305735061332     -0.03417905829035
  C   5.64957538172258      0.06434613021839      0.12938712653834
  C   4.99170979185036      1.33063265804708      0.13274401592742
  C   3.57161384246880      1.33009085579306     -0.04643609962177
  C   5.70599384673871      2.52308669086812      0.31295880137233
  N   6.30717711500941      3.50653639774295      0.45908063428623
  C   5.70439782104839     -4.82098421171217      0.24027439469530
  N   6.33540960196142     -5.76661687768287      0.09116081285604
  H   1.85101669905169     -2.40568256229885     -0.60777937543476
  H   2.41498970792340     -2.50499029088713      1.04552962828767
  H   3.78144878563472     -3.67688948365854     -1.40759920717908
  H   4.73625133861270     -3.45228368560766      1.47098832034603
  H   5.96274169428272     -2.61075813330264     -1.18737893818128
  H   6.67667468680893     -2.31353576926864      0.39457536372855
  H   6.72860194754423      0.03459247358528      0.23119740379193
  H   3.03170537629172      2.26567442652525     -0.08476277224598
