23
Coordinates from ORCA-job 5310optt
  Br  4.83852608880414     -2.73977866959531     -2.47992114059328
  C   5.21326739802827     -2.67957238119525     -0.64238743936319
  C   5.66502612303860     -3.77170317852789      0.09073749072511
  C   5.78633444713156     -3.30176021331866      1.53782485254789
  C   5.18009915734378     -1.89550751429352      1.60891483362377
  C   4.55465647003676     -3.03749786577147      2.28212763584554
  N   3.67800607113932     -3.50980314634974      3.06285028088086
  C   3.81804257461026     -4.92667542829204      3.17468470330043
  C   4.96971275427884     -5.53347732498378      3.51006077936584
  C   5.45118326105953     -6.58908480786111      2.59699711751163
  N   6.34013326455434     -5.90116021794422      1.80429982546568
  C   5.82965621553423     -6.00395109719702      0.58051404728106
  C   4.87768126783281     -7.11764531254063      0.50538217516961
  C   4.61236523833060     -7.45278991556428      1.79694637160752
  N   5.80133243438927     -5.01493570555195     -0.35451590676742
  C   4.81259859547049     -1.55835935797400      0.15967958581674
  O   4.29120186220991     -0.50990207384106     -0.17191593948800
  H   6.67423772726029     -3.57545792303040      2.08374813598613
  H   5.61840440604342     -1.09474800558476      2.19142155562484
  H   3.00837431586852     -5.47224844229868      2.70151643665070
  H   5.75164625860480     -4.92132107488101      3.94451192146959
  H   4.40689885266475     -7.46581207383205     -0.40082220615546
  H   3.85361521576545     -8.12180826957110      2.17334488349439
