26
Coordinates from ORCA-job 5313optt
  Br  0.99654720177421      1.41509717949565      1.36165055548841
  C   2.43920968775344      0.49718789823170      0.54802500305510
  C   2.48482105615613     -0.91778635135942      0.56626238210838
  C   1.55301085080756     -1.84602438937462      1.03054194084247
  C   0.18363579883213     -1.94503487825760      1.14664919834195
  C   -0.32241076894736     -3.24068132400542      0.99700850934132
  N   0.28266860992190     -4.32768696488724      0.52770751496543
  C   1.45635580743667     -4.59105702105831     -0.07528312241497
  C   2.70475185984169     -4.05378650781674     -0.49050558126850
  C   3.58128697222499     -2.92487892157074     -0.49730159562232
  C   3.56616766181502     -1.59874196543423     -0.08977264099772
  N   4.67918522273397     -0.77358301615730     -0.44238359619743
  C   5.91872775162423     -1.09567042481255     -0.95500541521741
  C   6.56509978085975      0.04712382946984     -1.20973920278632
  O   5.76557178585659      1.12197079572451     -0.87718395470639
  C   4.59706510503496      0.60088208943637     -0.39317997488379
  C   3.51482778248694      1.27819194604637      0.06174585338440
  H   2.01144661606133     -2.80985801524410      1.15810044316873
  H   -0.49440187307594     -1.10706221013703      1.25432507125472
  H   -1.37351291255274     -3.40358150123511      1.23876487605284
  H   1.43395972221697     -5.63022362028294     -0.41034487370353
  H   3.20688950073042     -4.85283640749927     -1.03184105524207
  H   4.50583207679164     -3.19160927775046     -0.99853488741495
  H   6.25109655200848     -2.10816197114651     -1.08469328581502
  H   7.54296227401650      0.26248181515750     -1.59594752999326
  H   3.50520587759049      2.35632921446767      0.07093536825990
