26
Coordinates from ORCA-job 5314optt
  Br  1.00438243309311      0.18013711195539      0.22823579792741
  C   2.91178529735957      0.13755299425051      0.00726126221259
  C   3.57332474727902     -1.10392424550637      0.02293907594587
  C   3.24057923217292     -2.45769275079916      0.21770893482268
  C   4.43028004649627     -3.18007678418961      0.18136210956436
  C   5.52487289593189     -2.30078979668967     -0.04529186560370
  N   6.88476441329080     -2.72223330755237     -0.14974651974710
  C   7.37641515988815     -2.94392795879574     -1.50144590549305
  C   6.95995133083334     -4.24465562858103     -2.04213102814299
  C   6.62507324215975     -5.30377815895966     -2.49155888075312
  C   4.98698561243924     -1.01631932111410     -0.15068639095826
  N   5.52428986467129      0.23619357307835     -0.38754894285582
  C   6.93772821194709      0.47412901895240     -0.42953781573685
  C   7.61419492512876      0.29773356963550      0.86616163318548
  C   8.15449013817379      0.10959923852497      1.91980362223817
  N   4.79106692892881      1.42021736554664     -0.27002493035843
  N   3.49193255486721      1.29450473174816     -0.10784784266217
  H   2.24578484743303     -2.84268382445722      0.38050396970578
  H   4.54461854974235     -4.24771235337852      0.30268551085709
  H   7.51249322215639     -2.11683333457192      0.36112983041273
  H   8.47000712636963     -2.91892217327961     -1.48573145713814
  H   7.03715842193029     -2.16999905539773     -2.20605184744802
  H   6.30174379222759     -6.23929361908802     -2.87782379803295
  H   7.06818419163394      1.50146661684188     -0.77120300312063
  H   7.40528076094773     -0.19411139988824     -1.15893614317788
  H   8.60961205289779     -0.05158050828475      2.86677462435699
