28
Coordinates from ORCA-job 5319optt
  Br  2.75148123774260      0.61234454715777     -4.10048041608015
  C   3.40307445294723      0.73042973716555     -2.29964134750420
  C   3.29957259125868      1.88830874101986     -1.58159274913871
  C   2.46024280675504      3.05864747940232     -1.92295300554208
  C   2.52192745610217      4.16761499679309     -1.17457710679720
  C   1.34408280768351      4.70092555649651     -0.40940987631320
  N   1.34374691745555      3.95921347659040      0.88374179178145
  C   0.84999542826282      2.57978419739242      0.78858679947129
  C   1.34129541342500      1.64431729579590      1.90103362978278
  C   2.83841476847637      1.21750927892913      1.91514347416859
  C   3.39501168212769      0.87567230000464      0.55775134615353
  N   3.57386543111184      1.91640256563096     -0.24675048655946
  S   3.04562001173244     -0.67837258746919     -0.14955488159241
  O   1.62772055186945     -0.86394987616587     -0.35067645762027
  O   3.76167360359603     -1.75469041297494      0.49782333377414
  N   3.73801828533190     -0.47687611803843     -1.65924409319951
  H   1.55493286333782      2.81653106451114     -2.47614590185714
  H   3.45910920632611      4.33330514042190     -0.64920762064022
  H   0.39569088134411      4.51004398770463     -0.91635643421614
  H   1.40906348454801      5.76717951119902     -0.18508597094744
  H   2.31174483282726      3.90964070501499      1.19020150695582
  H   1.08885328169807      2.11971426806918     -0.17591010536666
  H   -0.24267243084922      2.62046439402883      0.85118628219400
  H   0.74290548689385      0.73509142087364      1.80834511959627
  H   1.10310337566826      2.08946487420295      2.87389837722149
  H   2.94509385480502      0.38577806490092      2.61640631797030
  H   3.45218028369254      2.03980698468795      2.29514112366288
  H   4.72425143382977     -0.71730159334534     -1.62367264935775
