23
Coordinates from ORCA-job 5324optt
  Br  1.50342475863778     -0.35385382442149     -0.71495797075839
  C   3.37596902357921      0.00411606386829     -0.54891180885291
  C   3.83012485020536      1.28553360034038     -0.42167030750331
  C   3.11435168743831      2.58850259598081     -0.22282994655573
  C   2.50530202184272      2.63379145213041      1.19179469616252
  C   1.75336456152852      3.86471930940347      1.42762005278844
  N   1.16146283414093      4.83480602867928      1.58208450011629
  C   4.23150202423386      3.63127007055763     -0.42843192094901
  C   5.57005775993074      2.89234137637106     -0.10252220638135
  C   6.66279328764791      3.39632195079404     -0.95600224179554
  N   7.46987405673245      3.80589986655273     -1.65929707402545
  C   5.93837032186357      3.09818704171184      1.32336754911083
  N   6.12988834961753      3.20382773192455      2.45051266538211
  C   5.21076242771493      1.45620071833628     -0.37670378959214
  N   6.10331021034377      0.41305626623918     -0.38586048525396
  C   5.51526130476162     -0.76514029604648     -0.52004599551599
  N   4.22036675804328     -1.06984785842555     -0.62625041192091
  H   2.31061208099016      2.73132308702075     -0.94741465480069
  H   3.29450098314242      2.55345871439694      1.94308535238151
  H   1.83053193042771      1.78611875320065      1.32151774398404
  H   4.10360056732527      4.52726663021033      0.17971252374525
  H   4.27167485420426      3.92817338685201     -1.47485704562428
  H   6.18389334564763     -1.62307266567713     -0.54593922414132
