28
Coordinates from ORCA-job 5326optt
  Br  3.86555573656810     -1.20001686853924     -3.30875945805639
  C   5.30017943011960     -1.68924832366734     -2.13309330104260
  C   5.81430318128618     -3.02186237319255     -2.06612601078356
  C   6.25222821844485     -3.37892877732891     -0.67220453684881
  C   7.22963715902319     -2.32942240649601     -0.07127570841644
  C   7.07911178995287     -0.96331573814050     -0.68625947959900
  N   8.31716622715316     -0.25340931868605     -0.93742891773543
  C   9.14959339259712     -0.97400031006824     -1.80524027917595
  C   8.67735336650339     -1.71554824115020     -2.81698864380706
  C   9.45683802317336     -2.80463809623742     -3.42416879713029
  N   10.68262224194636     -2.76488107437012     -3.79667234423600
  N   8.83126608187713     -4.04744372954088     -3.50444767730320
  C   7.57118934052098     -4.52184344720667     -3.10071574102272
  N   7.37378947567059     -5.74262102475565     -2.79764983535422
  C   6.40314131944796     -3.54127523683840     -3.23414646714194
  O   6.20415687941334     -3.18186864571593     -4.40718713207930
  C   5.97286168954338     -0.66389510147626     -1.48903307828481
  H   5.36631585319961     -3.43022021939740     -0.03265441901967
  H   6.71467123796164     -4.36599216094110     -0.65360314795546
  H   8.25879749329386     -2.67024699676922     -0.21358383157706
  H   7.06658713698072     -2.27918967922674      1.01329386089379
  H   8.80983584132924      0.03879425858449     -0.10516735355548
  H   10.20437324288299     -0.99859030473011     -1.54045379747285
  H   7.63171910889629     -1.66210361486619     -3.06593354341130
  H   11.02136028416010     -1.81054501893437     -3.72168866400026
  H   9.48325448691688     -4.76366248534976     -3.79557127487519
  H   8.24733301192547     -6.27321033150790     -2.82754253133828
  H   5.77775874921101      0.36518526654891     -1.77169788967035
