25
Coordinates from ORCA-job 5328optt
  Br  1.60015917404525     -1.54581642749257      1.23319250467912
  C   2.75156207781495     -0.38038158453089      0.30897987001796
  C   2.76225502936383      0.98516033600123      0.47573638404870
  C   1.91090429712437      1.82108943168870      1.21498002249542
  C   0.54317183936645      1.83742191819073      1.39735409581173
  C   -0.05307728670419      3.09453567176246      1.40461516767455
  N   0.46927927311609      4.26108999500986      1.00328152524357
  C   1.55721289315024      4.62316546950884      0.32686119133218
  C   2.76509350718797      4.16833089631522     -0.29112683208454
  C   3.64546299375420      3.08644721359444     -0.52897879704306
  O   4.74401008300661      3.55595180258992     -1.33731078045631
  C   5.84612467072026      3.96796492877627     -0.72566426909318
  O   6.08058525935554      3.96128227879167      0.44644986660699
  C   3.74250304131259      1.71701824658514     -0.29335075896119
  C   4.80994725020349      0.90652230366176     -0.84522851517631
  N   4.79190281252519     -0.37427762995089     -0.95288506198855
  N   3.63114668934881     -1.00916617502278     -0.57499973041517
  H   2.37304718800008      2.76984823192797      1.42993189330408
  H   -0.07354328226105      0.94476683144838      1.43176730985831
  H   -1.09348295137607      3.17048697080530      1.71767276322405
  H   1.49087877848133      5.69215763164469      0.11494810121833
  H   3.18810827129852      5.02768147008881     -0.80257069665874
  H   6.55667119438509      4.32845226539651     -1.48500512129856
  H   5.72431365733617      1.36297340388713     -1.20297740931215
  H   3.78176353944422     -1.99370548067794     -0.42367272302723
