28
Coordinates from ORCA-job 5337optt
  Br  1.55561150789356      0.52113717660707     -3.09234175666666
  C   3.65296695633726      0.26334780454660     -1.90590757053476
  C   3.67241617192429      0.89696130265392     -0.68840214822913
  C   3.04839692280828      2.24594457322924     -0.48367179304142
  C   1.55497145137453      2.18968518056648     -0.02520208125487
  C   1.14508611547110      1.00542079961672      0.86885699721804
  N   1.69113480845692      1.03251291693678      2.22254883026380
  C   2.31873119518327     -0.19186892647222      2.71743404640741
  C   3.84977393087079     -0.03796379289637      2.78486399217864
  N   4.31993400762326      0.69881506659530      1.62391233467052
  C   4.17469105688119      0.11467983319747      0.38182843289868
  N   4.49285878479436     -1.16391052557356      0.28841549995213
  C   4.44589901158487     -1.77110966730309     -0.91460778364963
  O   4.69368193966537     -2.92040822902156     -1.15732134710185
  O   4.09502790528280     -0.96739161317298     -2.03793084765968
  C   1.17826168114587      3.44901810793607      0.61822395249880
  N   0.89221681028050      4.42751998561604      1.14652042164677
  H   3.06354582944541      2.78231216623396     -1.43238425419140
  H   3.62471100712612      2.85404138422572      0.21682027228159
  H   0.95834738963993      2.09219739932025     -0.93575372950426
  H   1.47687590335477      0.10362745596193      0.35226232801749
  H   0.05121190976702      0.97281432520087      0.88431272783064
  H   1.02507866246844      1.41146257014361      2.87603954597880
  H   2.08576943026699     -1.03054383143764      2.05508629584716
  H   1.93320237133393     -0.44467505232914      3.70799705231383
  H   4.33555904575419     -1.01100977164841      2.81880532840152
  H   4.13354737456150      0.53225398908147      3.67095192810349
  H   3.92149081870340      1.62512937218545      1.64564332532433
