25
Coordinates from ORCA-job 5341optt
  Br  0.06824339340188      2.20366049220308     -2.59810591098959
  C   0.24520699461808      2.42871248917952     -0.72473615880434
  C   1.38216945704217      2.76177301258761     -0.10004726360741
  C   2.44985405588375      3.49620908795256     -0.78878323545192
  C   2.15479735049603      4.67967015950828     -1.43722903103867
  C   0.92279724054213      5.38851415346442     -1.45893369499946
  N   -0.08429555309215      5.08422665769536     -0.64516802369361
  C   -1.34099597093073      5.47809548892954     -0.76030243507004
  C   -2.33294943368497      5.01490350357292      0.10099511416291
  N   -2.01768152998659      4.14738225063474      1.22152086028251
  C   -0.92431960337903      3.31850936555860      1.05797618251657
  N   -0.97014614208240      2.49556480044060     -0.05733418799775
  N   0.06883182204516      3.30858717476961      1.86714659138086
  C   1.25501665558129      2.75886941862870      1.40026033575923
  N   2.17904499790793      2.39992796075822      2.20645560193303
  C   -3.68019456531647      5.40903282508996     -0.03079772579561
  C   -4.83470904075923      5.75734899780882     -0.12320062747098
  H   3.47883041848891      3.15788246234314     -0.74591949907170
  H   2.95830540249110      5.13617225314123     -2.00948134408309
  H   0.81881845654439      6.19850240526979     -2.18979031913316
  H   -1.67020605229698      6.12239655102819     -1.58433210524867
  H   -1.90922616904114      4.65148770996461      2.09463044285352
  H   -1.78772496553923      2.61240270247901     -0.64050723157304
  H   2.98700536664785      2.09730483313764      1.66512658740103
  H   -5.84947258558175      6.05686324385376     -0.21144292226063
