29
Coordinates from ORCA-job 5349optt
  Br  1.13166093704240      0.47259040927390     -0.32463725628625
  C   3.05673967072623      0.24173904534257     -0.14286688469164
  C   3.60073188332053     -1.00726044897199     -0.33093005460343
  C   2.75772007119097     -2.15776172525795     -0.81893115960592
  C   2.06500380913768     -2.97746997075178      0.28253198044543
  C   2.89335585565873     -4.16290382712612      0.75523279528344
  N   4.23134985263507     -3.78296660673172      1.16766165491579
  C   5.24644233976838     -3.67989070358401      0.11647113173583
  C   5.83142187407808     -2.28492873683926     -0.12025635736082
  O   7.08088943211982     -2.22779098355433     -0.19642963081813
  C   5.02663041462674     -1.09800930835505     -0.13699837131455
  C   5.71054447068683      0.13328565025092      0.07415260103228
  C   5.00303818476013      1.29304063018394      0.22018398962538
  N   5.69226805173640      2.49816551386751      0.48021204861648
  C   5.13966784586929      3.71978053039527      0.64831522878114
  O   5.78729097767109      4.72472542616709      0.88502304998137
  N   3.66495016977315      1.38444169031491      0.15438239144281
  H   3.37209315408186     -2.81244408452768     -1.43901837986489
  H   1.99372359357210     -1.75311101306319     -1.48087647529311
  H   1.10654905999415     -3.35367306777835     -0.08827268000375
  H   1.84958505687591     -2.32004922066699      1.12746056759250
  H   2.92534062276595     -4.91374803971926     -0.05347844959379
  H   2.39303986961484     -4.63215411037350      1.60630137416053
  H   4.56097238687404     -4.39252758682414      1.89855955615782
  H   4.86958714245745     -4.11597287072432     -0.81786065176404
  H   6.12105158715728     -4.26961726002922      0.39586756141882
  H   6.78856929590510      0.11153234831403      0.16073287025013
  H   6.69695077290256      2.44735945933853      0.55906772193246
  H   4.04883161699717      3.70761886143022      0.54939982782809
