17
Coordinates from ORCA-job 534optt
  C   1.07853958856550      0.06855126133856     -0.60071266247089
  C   2.39210941997019      0.01835676217337      0.17057847451424
  C   2.56439594937316     -1.24950742821237      1.02842077366556
  C   3.46761369554606     -0.83108670373212      2.17877763338437
  C   4.09241362369207     -1.73819521518404      3.01091022087258
  C   3.38586460637223      0.57696638029348      2.22795890865848
  C   2.61642635675013      1.11151159142747      1.18486884325391
  H   1.00475788143269     -0.75117400253042     -1.32507061532829
  H   0.98043954962459      1.01122688681206     -1.14705116690872
  H   0.23698911956070     -0.00207602727764      0.09298146462831
  H   3.21240465362688      0.02921597334954     -0.57427167357397
  H   2.94009074328938     -2.11072710664204      0.46955663478222
  H   1.58024500499208     -1.52274756743539      1.44305408563049
  H   4.04636020709113     -2.80186998069953      2.80992993030730
  H   4.68946201502634     -1.41527625019873      3.85621641151241
  H   3.84147429291346      1.16277292670113      3.01981976128982
  H   2.59841329217336      2.16005849981668      0.90903297578219
