26
Coordinates from ORCA-job 5355optt
  Br  1.09111551889096      0.18654402723781     -0.36335410399061
  C   2.99604581556288      0.04963918234649     -0.19682937906628
  C   3.59794784766844     -1.15872201335528      0.04750844341036
  C   2.87057333232665     -2.45807003602697      0.25976984421715
  C   2.56099355395635     -2.65324781529229      1.69666073936378
  C   2.34056430374128     -2.84489536626891      2.86016708382176
  N   3.66650854666618     -3.56238238639914     -0.28515269771279
  C   2.93953966376083     -4.80794899151394     -0.28247071727722
  C   1.86052841379000     -4.81859034273490     -1.34015197196536
  O   0.98984007904351     -5.64326900062719     -1.40685441618889
  C   4.97360240926760     -3.67660279402408      0.35896492618679
  C   5.75331684735210     -2.36896423411816      0.39037656545629
  O   6.98420271247562     -2.43694311597576      0.59913954816709
  C   5.02440241447543     -1.17086651529193      0.17233543717999
  C   5.67813791507184      0.09378856924255      0.07396608583337
  N   5.07177509566459      1.23019113488371     -0.15628725666363
  C   3.72607418031950      1.23214176980657     -0.30965291965336
  H   1.91951896952086     -2.43112791929570     -0.27869334112137
  H   2.15393752173831     -2.98666509249535      3.89695960535993
  H   2.49697654184261     -5.07284765740127      0.69053849058236
  H   3.63083367185771     -5.61497619516551     -0.54745559999178
  H   1.95187029259817     -4.01267421273862     -2.09514830920478
  H   5.57074559420188     -4.39267860391968     -0.20951926340769
  H   4.88375410488428     -4.06512086901188      1.38809870578653
  H   6.75555861812677      0.11383231031153      0.19712269753802
  H   3.23663603519554      2.17545616782794     -0.50703819665962
