29
Coordinates from ORCA-job 5360optt
  Br  2.92859716580614      0.63545687733335      3.15086635124885
  C   2.85421727171083      0.87735416139337      1.23249215253586
  C   3.43031945800236      2.03476100579964      0.68031380308340
  C   3.56747063018702      3.33211262098091      1.41860715411241
  C   2.20019459525738      4.01763738579161      1.64135672437826
  C   1.30220742583707      4.01276291928408      0.39676916549734
  N   0.53082428785689      2.77676762840473      0.31076862355664
  C   0.06260377051712      2.41366515819344     -1.01432451158021
  C   -0.81186850257667      1.18115213726503     -0.84177414777096
  O   -1.94319309386454      1.30836313065668     -0.39248910012699
  N   -0.31985049873754     -0.04005998044126     -1.15578372023907
  C   1.04199603976312     -0.43212700106998     -1.56213013719697
  C   2.15059277212958      0.11263634761463     -0.73233486714246
  O   2.99927601380625      0.96398007246073     -1.41216178368341
  C   3.50056739486166      2.08631670157333     -0.73099972328976
  O   3.92283382490522      2.98416025940280     -1.44277249422262
  N   2.18530771821780     -0.03393285377145      0.58020453631767
  H   4.19803443096129      3.99110538961430      0.81954906209263
  H   4.05585980968377      3.19148174650632      2.38575739155345
  H   2.36683517157059      5.04843097221329      1.97032020637117
  H   1.66485153540180      3.50734623752518      2.44871971660817
  H   1.92523572218089      4.08400663936610     -0.49760209376400
  H   0.64610656330517      4.89711403370498      0.39926487175366
  H   -0.25292266317927      2.79259835605261      0.95301757007551
  H   0.92672378943088      2.23385109933432     -1.65685840023851
  H   -0.56999673629925      3.18060673874739     -1.48785886988350
  H   -0.93993885002698     -0.78397049444167     -0.87315378406179
  H   1.22225824220415     -0.13765569392652     -2.59751520727744
  H   1.02985671108723     -1.52492159556798     -1.52624848870735
