26
Coordinates from ORCA-job 5361optt
  Br  2.43224024895175     -0.41994368565445     -2.66807557556035
  C   3.29437678620802      0.30677614836254     -1.15387423970343
  C   3.98684608322971      1.58401007695902     -1.13521305942366
  C   3.21597989119461      2.76740707225453     -1.14892829992209
  C   1.84748006771288      2.82796355339990     -1.34758113987072
  C   1.08670481214921      3.46697075709524     -0.26474661688446
  N   1.03997485772977      4.67490355233597      0.14529141373655
  C   0.57589746834777      2.32142535136746      0.56129565930890
  C   1.03032004952446      2.08958841201139      1.79444757782732
  S   1.07706558412748      0.47166940004303      2.56102318392363
  C   2.82458648836785      0.28842253939196      2.43448016831058
  C   3.45780270889914      0.22095519341316      1.21974414192283
  N   2.80432220806541     -0.15064939640077      0.07260784471515
  C   4.79646826607931      0.75746785212281      1.01730792548131
  C   5.00728432620524      1.53751657077228     -0.08675144851245
  C   6.10862809181930      2.44985438754897     -0.11981341613019
  C   7.01621839553322      3.23669143385008     -0.17204827675175
  H   3.69080549933077      3.63783747948163     -0.69705652892774
  H   1.38059329860000      1.92454427264585     -1.72062293521886
  H   1.53797030298729      5.26358767405473     -0.52443546217103
  H   0.05602867789277      1.53121749457846      0.02779803533148
  H   1.61867772429790      2.84308265988724      2.30689704112692
  H   3.41463249016931      0.56437352397039      3.29780630226862
  H   1.82387513004866     -0.39317787151860      0.16956064171066
  H   5.48209701014698      0.78088278215966      1.85269491639230
  H   7.81712353238112      3.93262276586750     -0.22380785297950
