22
Coordinates from ORCA-job 5362optt
  Br  2.88286949178768      0.09283739286467     -3.31090043070134
  C   2.87549761730026      0.52222685312817     -1.47346599602569
  C   3.57065095605228      1.66909661951685     -0.75256039155035
  C   3.27464046538062      3.09330914611345     -0.99366052946627
  C   1.94340752188859      3.36574433369267     -0.77363004998741
  C   1.26567379333529      4.44688598588952     -0.21275201159623
  N   0.08816103226817      4.29005968086485      0.42002774089370
  C   -0.28569506368199      3.10833721491977      0.93026916696022
  C   0.35875792614518      1.97998197788217      1.42165463495071
  S   2.04991593127760      1.78990570227609      1.85051682912550
  C   2.91451016084992      0.94204471498444      0.51034176984933
  O   4.26660018359104      0.58014137640326      0.96327935688529
  C   4.85517248853477      1.22376749982232     -0.09707610884786
  N   6.07504200610706      1.38559878670422     -0.33917926052019
  C   2.31922624655903     -0.07323065691975     -0.42351719316515
  H   4.06713730423447      3.81655286745681     -0.85216193920873
  H   1.30597528452160      2.48660984096631     -0.82217420679725
  H   1.67254392611771      5.45516820513659     -0.24741915916917
  H   -1.36875861005523      3.03226055492581      1.05828766795039
  H   -0.28715857607773      1.22020915301572      1.84163535829410
  H   6.63842544815855      0.95246131883622      0.39272444736748
  H   1.74540446570510     -0.97496856848018     -0.27523969524108
