27
Coordinates from ORCA-job 5363optt
  Br  0.97155699224847      0.14944062326645      0.12679037013464
  C   2.85916213125212      0.07125247552380      0.42743882879906
  C   3.56612494856904     -1.12755062515668      0.12651078339238
  C   3.06237095035773     -2.32491399624118     -0.41002061792429
  C   3.86070763838756     -3.41979706504183     -0.64122298412136
  C   5.27175529272820     -3.42853341879437     -0.35126594365416
  N   6.10306384941300     -4.42636377547859     -0.53111657955224
  C   5.77999598908072     -2.18631108089602      0.19419993652934
  N   7.15374525032940     -2.08585248129858      0.56433332564142
  C   7.62474143336937     -2.78499605233251      1.77050377378663
  C   9.14209044319505     -2.78695465258514      1.52697313175296
  N   9.30470442737290     -2.63825091709615      0.07051443626306
  C   8.16438327436584     -2.27636210861107     -0.36115978535238
  C   4.96508530719368     -1.10439521025294      0.41335700550786
  N   5.47967695458108      0.06939614948766      0.94338244273781
  C   4.68437264842925      1.17732212335966      1.16002619092272
  N   3.40589954581249      1.17857357194193      0.91858695502588
  H   2.00578448488031     -2.37681848942698     -0.64307271110333
  H   3.42845233551631     -4.32513687346692     -1.05366037195977
  H   5.59705812582085     -5.21712535486933     -0.92477097794327
  H   7.21054138261687     -3.79705868437109      1.77302404255773
  H   7.32172751954623     -2.25410969495522      2.67337341968798
  H   9.62538162770900     -3.69960800966296      1.87573484975645
  H   9.62871572364215     -1.94005937562880      2.02493934280104
  H   7.94648425876971     -2.07269843772953     -1.40356548674467
  H   6.47459895568224      0.09517403279195      1.09800776692644
  H   5.17081850913039      2.05773732752447      1.55515885613206
