22
Coordinates from ORCA-job 5364optt
  Br  1.22524725827773      0.41494675084031      0.27073379590379
  C   3.12510684345724      0.08419043306488      0.06580864868113
  C   3.56303146623717     -1.24270441824791     -0.09022686634993
  C   2.96424701665956     -2.60218495432595      0.06915333220246
  C   1.72977057395064     -2.91409915989542     -0.78618208849083
  C   1.31486691843058     -4.30791047170004     -0.62135589028239
  N   1.02909501305190     -5.40674019775943     -0.45863725429520
  C   4.19440095282245     -3.49883618786555     -0.27869059790818
  N   5.32978942392108     -2.69308488200679      0.13985085805752
  C   4.97351377403977     -1.34292987334620      0.00520693987952
  N   5.83059735790226     -0.37758023417071      0.03002210038267
  C   5.24578595985524      0.88441221675530     -0.00283304460276
  N   3.89474842653687      1.10986651541517      0.08416109782842
  C   6.09901512134066      2.00475337905335     -0.04139445821448
  N   6.81134399388392      2.91820244219426     -0.08196165897641
  C   4.24900293198062     -3.81384020224768     -1.72531369761961
  N   4.31882670984115     -4.07626007009767     -2.83955497253244
  H   2.70486623593033     -2.82232247801630      1.11513934160405
  H   1.93999811155973     -2.72453908039193     -1.84040957110711
  H   0.90891332225423     -2.26397395939096     -0.48659573548087
  H   4.15337542529875     -4.44866340821013      0.25571347382179
  H   6.24145716276806     -2.94070215965056     -0.21763375250113
