24
Coordinates from ORCA-job 5365optt
  Br  0.54783091249113     -0.41096268607907     -0.05353280502671
  C   2.86055761025784      0.18833330219596      0.44687597381191
  C   3.49109520852827      1.39087294668679      0.18865558340830
  C   4.85830571325771      1.32774459112141     -0.28007837562190
  C   5.32777620465327      2.61946836665559     -0.47338875183924
  C   4.26954038615184      3.49005409845334     -0.13119663692875
  N   4.34681075346417      4.89386087122195     -0.23483838186077
  C   4.01905876621498      5.78868976835200      0.75065570525103
  N   3.44908478063866      5.58539937688175      1.86602018386418
  C   3.14943896266759      2.74668403267910      0.26077304594337
  O   1.91447908520064      3.20279164983735      0.65262829964101
  C   1.28477554683080      4.12906816142774     -0.19025012552413
  C   1.38625251512965      3.82026296317153     -1.63037356043932
  N   1.43512022011101      3.67383495135498     -2.76545488782699
  N   5.50522549688155      0.14699882683789     -0.47425130526791
  N   4.90826392509299     -0.94232327507988     -0.24467244161151
  N   3.61689276465979     -0.88273274618194      0.20806193703621
  H   6.31211322581793      2.91257838620599     -0.80500794430478
  H   4.92294408200320      5.24577566131434     -0.98149638735116
  H   4.28042380428726      6.81151113959763      0.47495981893511
  H   3.25047346026228      4.59466558261456      2.01006415321580
  H   1.68520542991883      5.13670570819120     -0.04442984046464
  H   0.22985352718639      4.12940365531830      0.08322435663422
  H   3.20947761829208     -1.80068533277864      0.31105238632667
