29
Coordinates from ORCA-job 5373optt
  Br  2.07269886376914     -0.04850900209560     -3.35493944075136
  C   3.34914363960807      0.06010873395722     -1.90294497258660
  C   3.62425670891443      1.28659946217491     -1.34814936584678
  C   2.66527198167081      2.41161342007972     -1.15730717781655
  C   1.57267999506782      2.10321001895601     -0.07442354309337
  C   2.13206024932917      1.49849488549350      1.23326246898561
  N   2.24056227580179      0.04734130114293      1.12013547016682
  C   2.81196700450080     -0.66339205102074      2.16141861959806
  N   3.63463688915447     -1.63076208980525      2.15770902291469
  C   4.38423431724818     -2.04795684945623      0.95207565926099
  C   4.55352768489493     -1.00227683850298     -0.11591648045916
  C   3.86186808094958     -1.10424878885485     -1.34263123336558
  C   5.03137624194386      0.28184002980940      0.31052692140625
  N   5.67479223045743      0.61226628481204      1.36984649616428
  O   4.73434771270263      1.35720544035484     -0.51954387179777
  C   0.81734729646863      3.32204221562537      0.20781447693338
  C   0.23408537924951      4.34712935620218      0.43147746457857
  H   2.14382829112778      2.64768593422001     -2.08604998733464
  H   3.21810688955329      3.29828894336513     -0.84148574656494
  H   0.88227738341639      1.36818139322163     -0.50211833319629
  H   1.45943134712480      1.73424175987819      2.06126988989975
  H   3.10822126782230      1.95303832916332      1.44434594673944
  H   2.51992176433043     -0.26341325736081      0.20135857806673
  H   2.44186586093341     -0.33092395436808      3.13559324170837
  H   3.89335313539317     -2.92613442740414      0.51992352360966
  H   5.34525298885074     -2.40031207776632      1.34354209642006
  H   3.61506893022116     -2.07191800363628     -1.76402378964756
  H   5.86709754127578     -0.22390613237313      1.91460150719870
  H   -0.28728195178056      5.25146596418803      0.62963255880925
