26
Coordinates from ORCA-job 5374optt
  Br  1.02716685477398     -0.27346765705430      0.08999124817237
  C   2.92163586272368     -0.37900270059274     -0.12141932959997
  C   3.57637719599543     -1.60827340459160     -0.09504055960259
  C   3.27267074697338     -2.97553714180458      0.07685154140319
  C   4.47406337067565     -3.67518895908023      0.01831686140689
  C   4.62981911896588     -5.15718221270893      0.13217728503078
  N   4.76593695158920     -5.87004116890007     -1.14171112321576
  C   3.68137873938308     -6.31373194311443     -1.83040797077326
  N   3.60257115268920     -6.71538971607590     -3.03881237456369
  C   5.55794872260511     -2.76150029631877     -0.19412700058568
  C   7.02628720434164     -3.06537751876037     -0.26097008475501
  C   7.43744944420398     -3.84921987276066     -1.43199603034537
  C   7.76988772338195     -4.49910726034959     -2.38586669231780
  C   4.99393732240117     -1.50532551324930     -0.26075398553221
  O   5.61934686915069     -0.32892677112726     -0.42614969871357
  N   4.81078585307081      0.90137623041895     -0.43005035432297
  N   3.55118927111993      0.75950892999253     -0.27997390115789
  H   2.28909249860558     -3.39634818877216      0.22583887441154
  H   3.76439950626314     -5.58436513445550      0.64284392358018
  H   5.50920324802874     -5.40663007744414      0.73391486789432
  H   5.57594217287297     -5.60623438016261     -1.68907969365676
  H   2.77837951171745     -6.35303646349431     -1.21836564755389
  H   4.50203733142109     -6.61495491769661     -3.51143742439475
  H   7.36111840877045     -3.60552820295687      0.63227307380259
  H   7.57401555356221     -2.11977467311398     -0.27604286794084
  H   8.05935936471351     -5.05874098582648     -3.24200293666982
