28
Coordinates from ORCA-job 5375optt
  Br  9.82648325157345      0.81160790847177     -1.93509056353884
  C   8.06352476910217      0.38566355703580     -1.38008735477009
  C   7.77003535862806     -0.73654553995790     -0.69210920820818
  C   8.80263167534383     -1.75645686936692     -0.26395040209920
  C   9.72085330665351     -1.36048005874979      0.90659976580504
  C   9.06973492231875     -1.34981697975376      2.29278767425575
  N   8.11824303733147     -0.26979246881541      2.39241201843714
  C   6.89383386736213     -0.58762757729992      2.31432480671532
  N   5.85697571238766      0.30209237231029      2.18540053961288
  C   4.84238744688702     -0.09824986442213      1.15950293437406
  C   5.39099657779060     -0.10727118522775     -0.23361263593922
  N   6.46474396047750     -1.03898056809696     -0.37701780420548
  C   5.55815288214935      1.14624779588967     -0.88758525734603
  S   6.71731693355884      1.31724068710878     -2.08855800631197
  O   7.10485796207780      2.70645248386222     -2.22881068591364
  O   6.40533946307101      0.60293618754533     -3.31217698153577
  H   9.43583503608759     -1.97574122557005     -1.12600360676036
  H   8.28371972131202     -2.68764306666250     -0.00934152065900
  H   10.14379115800275     -0.37391671368593      0.71403050841413
  H   10.55259547744305     -2.07249082443419      0.92629860471117
  H   9.85610386789873     -1.21501304110490      3.04137203328804
  H   8.60440046012302     -2.33317529570535      2.48195793970878
  H   6.56289286085690     -1.63654036811333      2.33239346007061
  H   6.22895521860482      1.22398432091263      1.97542157485337
  H   4.00319013026640      0.59252150029734      1.23093755766276
  H   4.48342450212605     -1.08655084639804      1.46748704094457
  H   6.31706737064607     -1.95202110297248      0.01685654571215
  H   5.21491306991931      2.07856678290349     -0.46343897727798
