24
Coordinates from ORCA-job 5378optt
  Br  2.61217198255194     -0.46964390714279     -2.43664780043820
  C   2.38140988886988      0.79623919977861     -0.92222167338653
  C   3.38947838221460      1.76716120296370     -0.58354873916506
  C   3.14597311415085      3.12603007549059     -1.01485629265590
  C   2.08788373550269      3.46179588019863     -1.78403393307443
  C   1.18895928388932      4.54424239550880     -1.32967243616496
  N   1.18371911059307      5.79354887141143     -1.57942803910367
  C   0.13255665774451      4.00075571375419     -0.40872145422340
  N   0.35329954395911      2.94060463773162      0.26759998364609
  C   -0.57388758810698      2.37308017539899      1.10996443949485
  C   -0.25937804769552      1.36180364489131      1.98306060004477
  N   0.94515383137783      0.82010103955872      2.28145475052650
  C   1.89277723412130      0.70154971221983      1.39677507535260
  N   1.63911727547379      0.28969015571108      0.10799158366097
  N   3.20126084108259      0.96661168164117      1.69200238991455
  C   3.83580003728676      1.56720825086985      0.73378761843589
  Br  5.51153746454818      2.41859397420867      1.27358496495124
  H   3.64707557990661      3.89795330965452     -0.43655324015879
  H   1.54399156454240      2.63653863611968     -2.23554750753940
  H   1.94964025838542      6.00527494128624     -2.21970408543590
  H   -0.80797199497653      4.56282579755667     -0.35202617280025
  H   -1.58757766163444      2.77345677204361      1.14259761398009
  H   -1.06970513572726      1.04758898100139      2.63763624737120
  H   0.69671464193984     -0.02601114185658     -0.08949389323225
