25
Coordinates from ORCA-job 5381optt
  Br  1.12050747601474      0.40309850497494      0.67264523636312
  C   2.62976707576324     -0.13305829981648     -0.47731449062035
  C   3.40353700886737     -1.27136138845161     -0.16142965991928
  C   2.89402168403402     -2.59147644336223      0.13264028757718
  C   1.40683841649504     -2.82195062133947      0.23103417623462
  C   0.97172999956574     -4.28120701339437      0.23449107120956
  N   -0.47457335879966     -4.42511126985139      0.30393131341963
  C   -1.25912326224288     -4.50993092142848     -0.80819868273075
  N   -2.52161936812089     -4.38375332037718     -0.91147260215189
  C   3.78024914477022     -3.61338735952020      0.22148238459543
  C   5.21899140062362     -3.44406764928496      0.02674761670872
  O   5.97427449869092     -4.41530551527559     -0.00654459423571
  N   5.68482613510717     -2.15445712237954     -0.08513483198405
  C   4.82286366725369     -1.17942051354317     -0.18393420450911
  N   5.46364872344932      0.11190269586532     -0.13770827663409
  N   5.03103660572340      1.14572302891360     -0.58888613991556
  S   3.34971236247517      1.13443965385316     -1.33641234044103
  H   0.90995110225422     -2.30484195562228     -0.59555230452296
  H   1.02486195718237     -2.34711337897441      1.13823214535128
  H   1.41078878218718     -4.81156536373471      1.08030569180519
  H   1.31365064998100     -4.78885883062565     -0.66922418023555
  H   -0.91993516080666     -4.06061606179791      1.13363564025848
  H   -0.68893636703314     -4.75644063963385     -1.70530389904506
  H   -2.94389959313819     -4.14375329868790     -0.01350846320224
  H   3.46383041970293     -4.63348691650552      0.39447910662443
