27
Coordinates from ORCA-job 5382optt
  Br  1.49767802702699      0.77348815319167      0.69308276999561
  C   3.39516649355783      0.35115962767560      0.55177105785681
  C   3.78580494503043     -0.96585459352414      0.38223002253098
  C   2.71557767789808     -2.03082127660006      0.20817230930127
  C   3.12334357623646     -3.47929886994525      0.48505340063663
  C   4.28919446543950     -3.94163493629992     -0.38354919517785
  N   5.56675017506271     -3.69683385118359      0.22183995033912
  C   5.91689278047790     -2.47270090033170      0.47411026288628
  N   7.22861271539312     -2.32040834412973      0.99202653599436
  C   8.25647479630666     -3.23462969117960      1.04212234007140
  N   8.33163795191548     -4.42574235724299      0.61426290676634
  C   5.21920854895354     -1.21092447593761      0.33298940540155
  C   6.00885443977740     -0.00878756633556      0.27174479238952
  C   5.45479339143090      1.22520035040723      0.41049591486366
  N   4.13378656402826      1.44424371608917      0.61764185279336
  C   2.15188878640032     -1.96267469377197     -1.15483496576089
  N   1.70589700206349     -1.94488508941721     -2.21231614806087
  H   1.88577908963454     -1.78453494970217      0.87131878418077
  H   2.24434501156002     -4.10557135612255      0.31488714051890
  H   3.40645774538073     -3.57417749018048      1.53556919593197
  H   4.21000178018761     -3.45773973357473     -1.36952852237113
  H   4.20637867697947     -5.01661328461671     -0.55404178999218
  H   7.40185055564273     -1.45917156746377      1.47948945302874
  H   9.13079781997979     -2.79791454463914      1.53269882807635
  H   7.42581767357750     -4.68680100260538      0.22330893129238
  H   7.06713577079986     -0.07022508153402      0.05607955338388
  H   6.07487353925856      2.11385380897464      0.35037521312305
