25
Coordinates from ORCA-job 5384optt
  Br  1.23910803498367     -1.17152673207092      0.08816721750094
  C   3.13844909304444     -0.95272165774496      0.24213798302949
  C   3.76247297548058     -1.08257690596940      1.55455835503076
  C   5.04606539651894     -0.57887327765630      1.58841321221424
  C   5.74908704467576     -0.43536744562762      0.36310761402526
  C   7.12286799346469     -0.12006046829128      0.32483755858749
  N   8.25681000860719      0.09905344654460      0.25263580538182
  C   5.16408218918950     -1.19736356068760     -0.71774950562331
  N   5.95378193455275     -2.04572067340296     -1.54721449472481
  C   5.62394169503016     -3.43958761329416     -1.28838542205580
  N   5.23165769159708     -4.21233002794230     -2.20311938953164
  C   5.81100354647247     -3.98673946993172      0.12645098359858
  C   4.73716938063490     -4.99777803448318      0.61043433956754
  O   4.03740031698563     -4.56940019759967      1.79532309875138
  C   3.51807324895038     -3.33081131698584      1.53558287315618
  N   3.76116186652525     -2.33146571045340      2.26293011831009
  N   3.87496733108718     -1.36672353947103     -0.80408516124391
  H   5.61522238891466     -0.65124071324272      2.51047630859290
  H   6.94427240182939     -1.87667993466621     -1.39615274864569
  H   5.16527030108523     -3.68392083149830     -3.07288500715218
  H   5.88556056935643     -3.16614952468384      0.84016288384535
  H   6.78786537035928     -4.47849230997202      0.12538027353440
  H   4.02099004967286     -5.17340350175835     -0.19631276512346
  H   5.18768711981761     -5.94811416722940      0.88599902988896
  H   3.05703205116385     -3.27600583188135      0.54730683908543
