25
Coordinates from ORCA-job 5389optt
  Br  0.91598452555687      0.05816802301514     -1.53109661032600
  C   2.94660914702755      0.12464201666442     -0.05958017023288
  C   3.51328089296763     -1.06896398553019      0.26825867100692
  C   2.77656160663376     -2.36814481404816      0.35067449624278
  C   2.30157608964952     -2.69626041133619      1.70596005014298
  C   1.94215936924437     -2.97919002229154      2.81313376921204
  N   3.69148430434049     -3.42341065624429     -0.12195932989641
  C   3.22452287344244     -4.37118652890791     -1.02091168269849
  N   3.84843627377694     -5.27771589912124     -1.64669662264484
  C   4.95622182940900     -3.48498653439123      0.46992023867052
  N   5.63566161790257     -4.51879357724581      0.72316459944170
  O   5.50831852461831     -2.29367276632250      0.80347242349158
  C   4.90805241908303     -1.09956435294207      0.46521247692922
  C   5.69612476307473      0.00271231669723      0.36114825076422
  C   5.10362355038141      1.27365352378805      0.02748463224411
  N   5.67145848507963      2.42211747404482     -0.11483930447648
  N   3.71714327281959      1.21470542441382     -0.16928687048868
  H   1.92271440343830     -2.31096388241359     -0.32845411066067
  H   1.62330812096863     -3.21395373357367      3.79943747134029
  H   2.15646502086368     -4.25353458714799     -1.19607873783637
  H   4.84726686898037     -5.26738772249397     -1.44803012576853
  H   5.08986659294770     -5.35332501726417      0.53449186429045
  H   6.76401302414723     -0.06699801583177      0.50648483138544
  H   6.66914008301246      2.33390136989203      0.04963724523066
  H   3.29000634063365      2.09015235859086     -0.44254745536357
