25
Coordinates from ORCA-job 5393optt
  Br  2.18179706778816      0.16319182336180      2.14943152541851
  C   3.35461700318804      0.00161100782823      0.62195085000827
  C   3.87970899556922     -1.24952738957513      0.26045865823576
  C   3.40147688845488     -2.58567769727884      0.29938556225081
  C   4.33719214080546     -3.37940197720928     -0.35263284898043
  C   4.26620518874954     -4.86117537195672     -0.54276898738166
  N   4.25878670999890     -5.63469616350523      0.71350746788334
  C   5.35778195077494     -5.62282217613976      1.57164846699071
  N   6.42125910275656     -4.95449585260140      1.47782914073330
  C   3.18525865093373     -6.41236327141245      1.04272889492983
  O   2.18857827536907     -6.56670759335906      0.37981929861012
  C   5.41575827006214     -2.56302531481871     -0.81515842505461
  C   5.11795403538267     -1.27096524649291     -0.42251968969669
  N   5.81721209784326     -0.06803479748497     -0.58462934153103
  C   5.40469709979544      1.11155249650800     -0.05946794359199
  O   6.04322220433722      2.13831983328680     -0.11706536997119
  O   4.18954927553072      1.11407800092099      0.54447286381702
  H   2.48114869555422     -2.91540333358882      0.75880184857011
  H   5.12767817243940     -5.20113495008397     -1.12539098033827
  H   3.36032977357834     -5.17009703342868     -1.06261610875548
  H   5.23648385255573     -6.31435619964282      2.40661580165759
  H   6.39374430104425     -4.29443750415753      0.69890956976154
  H   3.31813442921738     -6.91194406399643      2.01668609393868
  H   6.28619561813719     -2.89964272948665     -1.36296171794874
  H   6.73123020013323     -0.04684449568626     -1.00303462955550
