23
Coordinates from ORCA-job 5400optt
  Br  1.25181815153899     -0.07745070768322      0.25224119175323
  C   3.12740279671706      0.19643999843885     -0.08539124363947
  C   3.65081183759781      1.48037944054749     -0.23165238294003
  C   5.10652742445164      1.56013608233457     -0.31433127146002
  C   5.79585170325940      0.31985274315549     -0.40270253247503
  C   5.12356385893693     -0.86047920736881     -0.28370654335725
  N   5.82610008115415     -2.06890205516142     -0.34984090217360
  C   5.37100175994485     -3.36931244501614     -0.26787706662767
  N   4.20415602060313     -3.83425219004312     -0.11162341251327
  N   3.78485568993777     -0.93997337068956     -0.06973470827956
  C   5.95288714204210      2.71875825421765     -0.36447089142048
  O   7.13177879236957      2.70974834645478     -0.68372917740487
  O   5.43059616310590      3.95494447874098     -0.00149279124475
  C   4.29526882217789      3.95402122270789      0.79447232064269
  O   3.12128002067552      3.84752926682666      0.03431743853153
  C   2.74437986540461      2.62819216454878     -0.45161818305393
  O   1.69956735126143      2.58410594644566     -1.04077843916842
  H   6.86888828218528      0.34733357066788     -0.53690828718436
  H   6.81629789174182     -1.96481938352190     -0.49092391136653
  H   6.20553662626702     -4.06828198561553     -0.36055753541485
  H   3.52848457624252     -3.07396451483550     -0.03757906611992
  H   4.24193796768823      4.92830499153125      1.27384949121732
  H   4.34100717469631      3.15568935331724      1.54003790369924
