25
Coordinates from ORCA-job 5401optt
  Br  1.13620546679890     -0.05545496505420     -0.95938404118256
  C   2.87179882526433     -0.18776837580533     -0.09628117666611
  C   3.58442851439944     -1.36651198260639     -0.21158758752830
  C   3.10412208493736     -2.65866447959901     -0.45591651756507
  C   3.89940105810202     -3.76698814245797     -0.20420947254687
  C   5.17533162537300     -3.67971984791204      0.39849638789988
  N   5.96257287720181     -4.65727790513249      0.78241494300842
  C   5.70730094279475     -2.30212652968547      0.64726870555249
  N   6.79043720314275     -2.04501090034905      1.26248058547494
  N   4.97292077238953     -1.25413735151831      0.07264895781150
  C   5.58210273547734     -0.03565480246228     -0.24608964650289
  Br  7.28164005808324     -0.10540493317970     -1.12040392651759
  C   4.89085497384532      1.10774443768871     -0.22929833615488
  C   5.41457214015669      2.46365543508621     -0.62404750112992
  C   4.92654037674236      3.50545355765968      0.28156710111449
  C   4.50829637630478      4.34190313057976      1.03141175067672
  N   3.52911916018644      1.03606307447692      0.06849829588249
  H   2.07397380442511     -2.77016787952026     -0.76320902288519
  H   3.50321059316498     -4.75879754987509     -0.39645020772336
  H   5.51762301853304     -5.54783453544986      0.56724300747800
  H   7.19960483054099     -2.94788612606525      1.50840483015405
  H   5.08518315603160      2.70182195872927     -1.64050003584420
  H   6.50332405192139      2.46093259202963     -0.61940664015522
  H   4.14191485683915      5.08124840892007      1.70130734095841
  H   3.18552049734354      1.65758371150244      0.78904220639078
