22
Coordinates from ORCA-job 5404optt
  Br  1.31425911528838     -1.32768580188368      1.20836536736307
  C   2.89330817398432     -0.51177648766421      0.57605439148804
  C   3.04339532548035      0.81576767746811      0.50554963829150
  C   2.11587645570771      1.94384907819916      0.69931750198807
  C   1.71577396018843      2.59501441649980     -0.51555038555990
  C   2.29241593588266      3.77950295396341     -0.91471974035889
  N   3.34450254301375      4.39506994156789     -0.36331327378999
  C   4.32991823888690      3.77220353713247      0.30162079692898
  N   5.06164925465570      4.20962060673470      1.25316624444482
  N   4.81841437255962      2.44639874601646     -0.19630825814426
  N   6.05888582939892      2.39342312688058     -0.73700643651211
  C   6.34752899004694      1.12266596287404     -0.90184421886210
  C   5.28746004521292      0.30823950101506     -0.44499665898943
  C   4.32951477926986      1.20816773648997     -0.00781257063775
  C   5.05772537156277     -1.10181477878819     -0.35573982702396
  O   5.76999494772992     -2.01206881189344     -0.67515304924225
  O   3.81136066396981     -1.43113555752542      0.20097901028333
  H   2.39247890953741      2.59963309797746      1.52151864196113
  H   1.06383088886014      2.07801263894849     -1.21436032887270
  H   1.85521147206710      4.29960337534038     -1.76790903717028
  H   4.69975984080267      5.12660221901652      1.50919958503027
  H   7.28973488589366      0.82570682163039     -1.33305739261558
