24
Coordinates from ORCA-job 5412optt
  Br  2.56276104511920     -1.48006154948302      1.62178826314314
  C   3.03325187566372     -0.21229859553806      0.32032172529973
  C   2.62091311952129      1.08963546053373      0.36214320337552
  C   1.73610483568420      1.69600179513233      1.31748600910037
  C   0.86248993567374      2.64592672079202      0.82908865863151
  C   0.38227395786429      3.79358800842684      1.47170297125346
  N   -0.15863821502020      4.83855567006240      0.88165316900963
  C   -0.20532866155978      4.98034481719874     -0.45740040884245
  N   -1.22078319460816      5.37499706468342     -1.11270962084127
  S   1.30920683292745      4.63632334731783     -1.54330826826417
  C   2.73706334947242      4.48242008589179     -0.52870897081570
  C   3.48059270044090      3.39668830911859     -0.30743744512362
  C   3.33161333286802      1.93619433378093     -0.59883386846416
  N   4.12492074944398      1.46675587800387     -1.50839667233243
  C   4.28186113752912      0.09928102425610     -1.64026611225545
  N   4.80197864891395     -0.49738157024475     -2.62578381044848
  O   3.92486711177502     -0.69887350912615     -0.57354065110218
  H   1.83573351969407      1.46298714920885      2.37236740782586
  H   0.69130086170631      2.60660858599192     -0.23783100243461
  H   0.49314362330883      3.86987681036768      2.55325582549560
  H   -0.99872613674588      5.50271610528134     -2.09717286271165
  H   3.11877699013364      5.42022804935833     -0.14022338032414
  H   4.42929079890905      3.56985470426552      0.19789162728156
  H   5.06933178128474      0.21263130471964     -3.30208578645606
