25
Coordinates from ORCA-job 5413optt
  Br  1.66441957556427      0.04232213750317      3.23696712840510
  C   2.70770639848320      0.27336624878173      1.64420587057002
  C   3.04735192402587      1.64499890471335      1.24124861745131
  C   1.97493526116449      2.62866616971549      1.26646518663058
  C   1.57828362708008      3.48399299646006      0.26121549375073
  C   1.89298480213103      3.61419621788267     -1.10284509348583
  N   2.72579188629680      2.94877918592220     -1.92058800277000
  C   2.86440767687663      1.67403710658450     -2.11761374203675
  N   2.02864920167174      0.69983166741410     -1.71257443460843
  S   2.62845269097056     -0.77744157805038     -1.83983260164944
  O   3.45425634989154     -1.00430792014092     -3.00015990968342
  O   1.60906500346152     -1.75056012399346     -1.54349228957196
  C   3.69888939072528     -0.62551798517964     -0.37190770465958
  C   2.98502226344570     -0.80250843132015      0.90640584261791
  N   4.77491536947158      0.01104434951736     -0.55281870002403
  C   5.28120622300500      0.75663028738464      0.60555411331193
  C   4.29302774288985      1.87746519888373      0.77137054554456
  H   1.38629229905217      2.65713840272880      2.17656980302369
  H   0.82052220785866      4.20082372622806      0.56628613004557
  H   1.43975667973545      4.48621476802013     -1.57208491259676
  H   3.73252142732647      1.39403443245232     -2.71606395294063
  H   2.57912678984947     -1.77611472887168      1.14511239845058
  H   6.27798211384217      1.12682032252550      0.37796050559618
  H   5.32031765407168      0.13521243308960      1.50760655427883
  H   4.52911544110873      2.85887621174879      0.37701315434986
