27
Coordinates from ORCA-job 5414optt
  Br  0.55752305034758     -0.06113035953411     -0.83961300789327
  C   2.98506960058873     -0.00373634972457      0.10136220031357
  C   3.70244254505642      1.18784105613312      0.03733199099505
  C   2.95580277358727      2.50199644710937      0.07785483044813
  C   3.87108797780967      3.70870979107338      0.24476800027234
  C   5.11222487584194      3.53996642225587     -0.62104642058311
  N   5.83161953528855      2.34881759443938     -0.18948604741912
  C   7.07611080425628      2.47029300440359      0.33116691210434
  O   7.74025166546655      3.48950421580467      0.34047716540857
  C   5.09228837918875      1.13084863110824     -0.13039559001226
  C   5.76746497367740     -0.09088725570597     -0.27903431892907
  C   4.99788768737244     -1.22763242898452     -0.20730289764492
  C   3.62569525075706     -1.20886899381129     -0.01380470741000
  C   3.14663629323448     -2.62360313997193     -0.06796978222697
  C   4.43585574743437     -3.39549179674045     -0.29154373630616
  O   4.61132527900190     -4.57070939303700     -0.39111488891041
  O   5.48766297599969     -2.51570906424993     -0.36614115599926
  H   2.20468744551558      2.45631884072735      0.86668620212404
  H   2.38838037024515      2.58012189254256     -0.85481475639396
  H   4.19442233042722      3.80938796046284      1.28444833605157
  H   3.34874734713859      4.62783805712200     -0.02735559853578
  H   5.79953031157568      4.37764056392972     -0.53686690686464
  H   4.82685531564409      3.41518448465309     -1.66970518328261
  H   7.44636763560465      1.53264388019372      0.76838924371898
  H   6.82472517489172     -0.14198573910446     -0.49382870684010
  H   2.44714949264072     -2.79829352202017     -0.88854698619849
  H   2.66518516140742     -2.97706479907451      0.84508581001350
