25
Coordinates from ORCA-job 5417optt
  Br  2.21680850818269     -1.69952247697461     -1.50770972147098
  C   3.06476949094962     -0.38265719908000     -0.38662589471856
  C   2.34916365672585      0.76072437353590     -0.01442930878778
  C   0.92858676345565      1.00627403754567     -0.43749773656701
  C   0.84979237006235      1.95166258317942     -1.64063720789901
  C   1.47128124570195      3.32143100886921     -1.32068421286445
  N   0.90173821823298      3.86090069579154     -0.11938394987692
  C   1.39132766518027      3.48609737919811      1.03390277091641
  O   2.69458296531243      2.89126646898776      1.14728448351064
  C   3.08632090520344      1.69805002730501      0.74162112612347
  C   4.40781619392349      1.38325967208250      1.10071991102713
  C   4.95130467459866      0.19700167834020      0.67214798897665
  N   4.29831709735122     -0.69483945115745     -0.08078067860794
  C   6.31427081410674     -0.13459853487358      1.02586478896836
  N   7.39799985216626     -0.37207167267740      1.31751523716477
  C   0.80235163717323      3.71237262663854      2.30086175517847
  O   1.26676087605891      3.36755689400732      3.41107061162098
  H   0.45660862897611      0.05637271331867     -0.67448000667317
  H   0.37740498468805      1.44425523915171      0.39260721221554
  H   -0.20266977653019      2.09438274227572     -1.89547898508797
  H   1.35004673480833      1.49782201132707     -2.50319983197265
  H   1.25680343828742      3.99800643134276     -2.15239707409769
  H   2.56616283365023      3.21723577451361     -1.27908586326886
  H   4.96752141034596      2.08451645571801      1.70221012143236
  H   -0.16107118861169      4.24250052163425      2.22158446475822
