29
Coordinates from ORCA-job 5418optt
  Br  1.05874948671084     -0.09276413634327      0.23088721913159
  C   2.96071868835305     -0.09741572758762      0.12630603803984
  C   3.64318132336745     -1.32916871779952     -0.00018915029995
  C   2.88851335985807     -2.60817146186975     -0.25261701532373
  C   3.80350527239397     -3.80460967310906     -0.49490457335923
  C   4.99365446395950     -3.75370189454209      0.45010506375586
  N   5.75209392354010     -2.54954425823054      0.16237851706075
  C   7.04063271598594     -2.64657925563456     -0.22368118728709
  O   7.70524250823861     -3.67335669058630     -0.22839524807478
  C   5.03004505424439     -1.31632584317026      0.17341570487855
  C   5.71098231647722     -0.13110399959339      0.37835630038584
  N   5.00353491726987      1.08574218416288      0.32774976408145
  C   5.77392806408311      2.27673202959632      0.09602118740760
  C   6.15832969088932      3.00751719217369      1.31640780674867
  C   6.46876725723893      3.60709861322818      2.30741300922533
  C   3.59518899777991      1.16367391578121      0.32095026383006
  N   2.95144738615707      2.28601847295494      0.44556946683720
  H   2.20467508709473     -2.47727280573181     -1.09588590097445
  H   2.24308560527280     -2.81529138016303      0.60990673150699
  H   4.18627583599316     -3.79282190186261     -1.51884976982427
  H   3.25293113407368     -4.73835224884161     -0.35903383812958
  H   5.66540982298813     -4.59866958362908      0.32143832665588
  H   4.65101852363974     -3.72269522909007      1.48954316229903
  H   7.45012082875664     -1.68333353033875     -0.55564930432990
  H   6.71030953549655     -0.08693502703144      0.78864668928224
  H   5.20463604683960      2.95206407389006     -0.54957477535717
  H   6.68296552610462      1.99429420009243     -0.44323015495139
  H   6.72544049678463      4.13090497652971      3.19575483102599
  H   3.57761613040824      3.04806770674536      0.68116083575867
