23
Coordinates from ORCA-job 5421optt
  Br  1.22969835954130     -0.19623477314782      0.28885282658250
  C   3.08804087233445      0.09451606612992      0.19526218988004
  C   3.67169644773799      1.31347170143854      0.32715663218866
  C   5.10558848936784      1.31071970691227      0.21005257830626
  C   5.81488884271146      2.61321082838551      0.44116297602410
  C   5.59748723381551      3.57978185636009     -0.72956999941437
  N   4.20909785612970      3.63688475206760     -1.14181995750831
  C   3.15915304632198      3.74069994417494     -0.13766007088252
  O   2.49829348039246      4.77930362746646     -0.11053836669683
  C   2.89215678097762      2.55365615468256      0.64780954542584
  O   2.00855379196069      2.50899702685127      1.53715155424579
  C   6.16679716996908      4.90553771336331     -0.36680738039254
  N   6.62598945478598      5.92752545449199     -0.12055430757317
  C   5.81870205219912      0.18246159191325     -0.05295258214826
  C   5.18241580783184     -1.09676482834661     -0.22377259100001
  O   5.72721598103330     -2.16655871694852     -0.47458161021764
  N   3.80552623288818     -1.03708805030772     -0.06088322270424
  H   6.88520709299920      2.45316854120426      0.57056751040284
  H   5.41916587287963      3.07220877112709      1.34945006290129
  H   6.19217919898825      3.22639186654578     -1.57791411393337
  H   4.06007738126362      4.41525297762751     -1.77338536412799
  H   6.89817977849724      0.19679060296779     -0.12378033620311
  H   3.31688877537342     -1.91493281495952     -0.16524597315498
