23
Coordinates from ORCA-job 5424optt
  Br  2.67904989008795      2.97922295897526      0.69203733690179
  C   4.15158113770394      1.88651745305577      0.16322995337700
  C   5.25239147576703      2.31430214008862     -0.49134074636970
  C   6.36252229343374      1.37018721342689     -0.48091057996821
  C   7.47131408132422      1.42308050526270     -1.35913158176594
  C   8.82586404680387      1.44936867806661     -1.01104439119762
  N   9.45115123883155      1.64161067122906      0.13888742353566
  C   8.91697063525705      2.23458169661776      1.24720989090156
  O   9.33189651443493      2.05250083985465      2.38034404973246
  C   7.77965338459781      3.20329558343627      1.02315353526738
  C   7.70164900338088      3.97039061477401     -0.05390426196600
  N   6.49358767098217      4.46872201865914     -0.57949050585965
  C   5.37103906576436      3.74414781714695     -0.92677240464328
  O   4.48456048196131      4.28933272708508     -1.55768731224412
  N   6.44996518855162      0.57790510503798      0.64336721960589
  N   5.44979530872694      0.22684535381537      1.28646391594037
  N   4.17536238032966      0.61111746348789      0.67292167968178
  H   7.25129685717746      1.58008040825178     -2.41046532138153
  H   9.50486278032177      1.32902452561361     -1.85879729080062
  H   6.92347411512050      3.08027780441555      1.67791066964842
  H   8.56548601475494      4.10326838766558     -0.69670637131194
  H   6.51456698777291      5.35076509462663     -1.07101410726613
  H   3.43995944691327      0.39345493940677      1.32773920018243
