24
Coordinates from ORCA-job 5429optt
  Br  1.11237189115824      0.16673794778840      0.07764405575081
  C   2.99231342771369     -0.02564751838130      0.01552643566248
  C   3.61752498997975     -1.22419296293489      0.02968662306417
  C   3.05370141790875     -2.61222076101914      0.11623959067719
  C   4.27849212545696     -3.50120044371765     -0.15801866431354
  C   5.52364747125572     -2.65811950097466      0.19723548699584
  N   5.98490964614360     -2.87995487715839      1.57955020526110
  C   6.51272556344999     -4.03881556613893      2.00457969009045
  O   6.61994843960089     -5.04549537334374      1.33080062695519
  C   6.69451393561647     -2.97775890750389     -0.74535876741299
  O   6.55922169014882     -3.21491799074912     -1.91150251195177
  C   5.02235717885586     -1.24542730522197      0.06879697318039
  C   5.71441070888344     -0.02075414686689      0.19024501645464
  Br  7.59982968394571      0.02465343158359      0.39121441526888
  C   5.06152327537843      1.22816707242922      0.16694213728459
  O   5.51618733392877      2.34773056622470      0.25260082021900
  O   3.64134186526338      1.16730000078045      0.00152305319765
  H   2.24886423026896     -2.78725299707494     -0.59941137450958
  H   2.64180290769957     -2.78933521867195      1.11432928715845
  H   4.34419633156438     -3.73062759345207     -1.22104365027502
  H   4.27662256850893     -4.43869158136640      0.39550078719789
  H   6.02162339861811     -2.07322328168476      2.18366664735079
  H   6.84258766855903     -4.00083293630703      3.05709580816235
  H   7.69128225009246     -2.95612005623861     -0.27084269146896
