24
Coordinates from ORCA-job 5431optt
  Br  2.48529106561680     -1.20829404462067      2.72831776679845
  C   3.33080308376700     -0.47682583034485      1.21266368100066
  C   3.01620789418396      0.71704798400305      0.71258238809474
  C   2.02216980510858      1.71087093181806      1.13319769958145
  C   1.06130523143151      2.01601218035653      0.26290952493511
  C   0.64900411955701      3.41070082121314      0.08065981450839
  N   -0.55944592097406      3.82859083358853      0.14947402834072
  C   1.79890307643629      4.30357502908392     -0.26808284354820
  O   1.57102516741619      5.52088145305549     -0.36973807479178
  C   3.18638762010578      3.81687953740993     -0.58423497529996
  O   4.06418777023531      4.67071326593632     -0.73410697211087
  C   3.69412874968093      2.43866063775882     -0.98552989660744
  C   3.75449216090933      1.19734026887171     -0.46017317670776
  N   4.60084675770053      0.22606123248783     -1.05329388534866
  C   4.92126141988719     -0.99989745828245     -0.54085322247721
  N   5.70284073721244     -1.87772147631383     -1.04795666178397
  N   4.31455368254103     -1.28687386041266      0.66986952048944
  H   2.30556221990668      2.42154005231063      1.90343659926504
  H   0.80826413376585      1.30857093842107     -0.52304480763637
  H   -0.52701473583890      4.83142024827719     -0.06223670523430
  H   4.37533008779185      2.59430015460452     -1.82052389053247
  H   5.09990757206596      0.50435739010755     -1.88186063214311
  H   6.09666363342207     -1.55475084043016     -1.92549241893639
  H   4.44732466807059     -2.22615944889972      1.00401714014447
