27
Coordinates from ORCA-job 5434optt
  Br  1.36498785232361      1.37037571914530      2.84459316116405
  C   2.24308353702129      1.00420097884655      1.16954669056317
  C   3.27341977164747      1.82915054376646      0.69432245913021
  C   3.20717583835745      3.32761737626450      0.76302710330293
  C   2.38078182508682      3.90745487606559     -0.41212468709765
  C   0.86746924015529      4.06072689944770     -0.20200637378492
  N   0.12754049489220      2.86940776350053      0.19743588934210
  C   0.05045764445055      1.78075433060242     -0.59836592468651
  O   0.32763103148845      1.77510229859335     -1.77981188675166
  C   -0.50807002702846      0.48557552401245      0.04829663303504
  O   -1.70511157467889      0.30093569925624      0.13320755367052
  N   0.43122597093503     -0.42719895866687      0.40668984040349
  C   1.81011430976796     -0.08637818749952      0.39645989758884
  N   2.56029474201692     -0.62569367972090     -0.51950014426693
  N   3.87406029952326     -0.16162832488120     -0.47620390099765
  C   4.13353756736262      1.22386035338667     -0.26935001972739
  N   5.08472628093138      1.85533199187373     -0.88633699595759
  H   4.21966731463302      3.72760362210564      0.69479303586427
  H   2.77950234143307      3.65182737907948      1.71736184544682
  H   2.56235126671546      3.29460272335771     -1.29577745926815
  H   2.74421085942258      4.91374705887206     -0.64835425692589
  H   0.42763091715551      4.43201120903576     -1.12990512013193
  H   0.67828547904705      4.80672664365060      0.57331329923156
  H   0.02597586317316      2.70464699528847      1.18731513362523
  H   0.10891063776719     -1.35830391883937      0.62474845399288
  H   4.36789683718153     -0.52008822990121     -1.27988595011892
  H   5.54624367921845      1.24263131335783     -1.55548827664592
