22
Coordinates from ORCA-job 5436optt
  Br  1.60919228388894      1.12028855686657     -2.08884034936422
  C   2.98884776651029      0.59347189755043     -0.89674450226678
  C   2.92135486070928     -0.69739063253815     -0.34883097368004
  C   1.89944441798123     -1.65264353326826     -0.41685420558266
  C   1.71624307522404     -2.56751772104929      0.61309005541608
  C   1.84197068254910     -3.97866419300657      0.22736540696958
  N   0.94418852275640     -4.84622078863500      0.04454761466833
  C   3.33099630455896     -4.30149159099181     -0.08107791027404
  O   3.58955983810140     -5.30290121950195     -0.71569823423900
  N   4.30632665719344     -3.50938244972198      0.44680722156713
  C   4.54587325923653     -2.29993667347590      0.76694853219721
  O   5.60232426187935     -2.06090765859180      1.56545969316550
  N   5.91157061160925     -0.68608617822041      1.61611524711183
  C   4.99246900017135     -0.11737694217720      0.89053618485695
  C   4.89961528203386      1.22561588467554      0.45550290266166
  C   3.93312014870362      1.52501512769631     -0.49111085445399
  N   4.06000861606544     -1.04591968745520      0.43011205663580
  H   1.33241201150071     -1.73521267683735     -1.33837403676123
  H   2.18250661400719     -2.32774298016595      1.56446711942707
  H   1.40294305148818     -5.69083883724248     -0.31419648568537
  H   5.63543510710998      1.93902068531115      0.78847019453548
  H   3.88859762672139      2.52182161077932     -0.91069467690529
