23
Coordinates from ORCA-job 5439optt
  Br  2.55600727933320     -0.08434023799999     -3.31592830350620
  C   3.42850893020665      0.28904112196268     -1.66432744820461
  C   3.99114973846947      1.57362071513655     -1.38031786970365
  C   3.09374187922562      2.67616765246555     -1.25231491094401
  C   1.72385576087761      2.62433573174178     -1.32402903108408
  C   0.91460192335589      3.55457596889900     -0.55864265782795
  N   0.96097544470383      4.82205741278855     -0.43330380683131
  C   0.01753059799803      2.76383202843090      0.39306833264933
  O   -1.05886222556203      2.30316712141760      0.10737251416369
  N   0.61383430111876      2.61528454838998      1.65518661608981
  C   1.34108846078925      1.64610201827114      1.99103423774602
  N   1.54559340110754      0.46101967885174      1.23546393040928
  C   2.76542394563415      0.40908922079610      0.55371653143276
  O   2.64741120612438     -0.27381864302178     -0.59722231004398
  N   3.80348660441148      1.02590329234873      0.94500577911501
  C   4.72371609890390      1.42246159001407     -0.07503056747120
  N   5.92789153142577      1.73281542712149      0.16692432371150
  H   3.51862824835718      3.57276445906297     -0.80088521983514
  H   1.23467193806354      1.69807354710651     -1.60299955445041
  H   1.61707704760723      5.19558918368741     -1.12233098260823
  H   1.88373836243498      1.67671244197418      2.93038993783308
  H   0.78073877186058      0.25496572724591      0.60240437865319
  H   6.10319075355296      1.59257999330889      1.16376608070710
