27
Coordinates from ORCA-job 5440optt
  Br  1.13743037694111      0.16733101781467     -1.05884853245618
  C   2.91650233159931     -0.06722024650244     -0.42777722665744
  C   3.49766778719785     -1.26128345641617     -0.22115959970555
  C   2.98248887667848     -2.67897127569964     -0.29078867390187
  C   2.26937846565534     -3.12202724652363      0.99670908075959
  C   0.97091528309923     -2.39187878957782      1.30430142365103
  N   0.39448738699645     -2.82656081578887      2.57067489096450
  C   -0.37959789715921     -3.92036808619134      2.69642131498865
  O   -0.75385291919703     -4.62804416771272      1.78623867542424
  N   4.23029271604983     -3.42576258608428     -0.43467114879082
  C   5.33035890604478     -2.65286427368587      0.03430817180827
  O   6.42639487958377     -3.15015576568878      0.26980199585840
  C   4.88576054658350     -1.28718018703793      0.10710113244721
  C   5.61965774986694     -0.10402791985220      0.31701133611411
  C   5.00003321571350      1.15436583609773      0.14883150615326
  O   5.48460704860135      2.28225208486946      0.29223541360560
  N   3.63360818219289      1.10204971867803     -0.26368271789595
  H   2.32289250897253     -2.82927406613919     -1.15157956235416
  H   2.97196701238447     -2.97235560518440      1.82239852686140
  H   2.05336918032845     -4.19277424239475      0.92900492002576
  H   0.22998282044771     -2.56903031260013      0.52450664798950
  H   1.14320349232757     -1.31915256680141      1.36882334356672
  H   0.69637125857967     -2.37138805802768      3.41559951880439
  H   -0.66622510996455     -4.11614630497393      3.74432223378432
  H   4.23408095379400     -4.37834715671930     -0.09685388305099
  H   6.66832336612713     -0.12592947516459      0.57218606064563
  H   3.19190158055477      1.99774394730730     -0.38411484863965
