21
Coordinates from ORCA-job 5443optt
  Br  0.94304161847604      0.01498512412453     -0.37757562563417
  C   2.81296607770271     -0.00433856146564     -0.12727432532619
  C   3.55997041263227      1.16404794456516     -0.06312314689619
  C   4.99379162990090      1.16027422050318      0.16197629365480
  C   5.71876152459422     -0.04253371690712      0.34612573702251
  C   5.18437715881318     -1.27628033641774      0.21220936445128
  N   5.94663554654297     -2.45968350858315      0.34022553439449
  C   6.98178867250979     -2.79124754713772     -0.46861977785851
  O   7.65526605955536     -3.79371239235344     -0.35320432244973
  S   3.51863441235357     -1.59714001495675     -0.26434298275568
  N   5.54587963930131      2.41192680749182      0.26806450911117
  C   4.47251786474022      3.18920058892421      0.10464417772777
  C   3.24625177315490      2.54962829185163     -0.09308713373719
  N   2.22657662972021      3.47248499472021     -0.24874052005791
  C   2.82335369172233      4.62629184466062     -0.14942143091670
  N   4.18910738100906      4.53565256511456      0.06505355924973
  H   6.76276619815975      0.02906765262250      0.63421044982077
  H   5.67777491285795     -3.15363207912845      1.02631971957766
  H   7.15467170617725     -2.03117860682716     -1.24628876994489
  H   2.33590535009595      5.58661657203517     -0.22408158941201
  H   4.82896173998004      5.30057015716355      0.17193027997898
