26
Coordinates from ORCA-job 5451optt
  Br  1.07161849114344     -0.05178865309002     -0.23995601749451
  C   2.95889367540794     -0.22231549989900     -0.08689392038095
  C   3.62034832557186     -1.38400243596554      0.00634763524868
  C   5.04545575646608     -1.33199131662108      0.17800948075602
  C   5.71712852767895     -0.10830800251367      0.25462790471176
  C   5.00541647949103      1.11979786836583      0.15028752817540
  N   5.43425290477327      2.34512384824548      0.19071743755492
  N   3.61562149579428      0.98868951235096     -0.02924779604708
  C   5.58049439173720     -2.65410628320879      0.23558954390533
  O   6.75527438520893     -3.00716894930268      0.39142050885604
  C   4.43870644724381     -3.65248482947301      0.03267299245509
  C   3.12113255927244     -2.82588617589745      0.04553212268050
  C   2.17331008781662     -3.22264756372144     -1.09866366252292
  C   2.63687546866122     -2.93224641453650     -2.49785438640410
  O   3.73081027429004     -2.57652477768497     -2.82959087898036
  C   2.39293946380146     -3.06041479131175      1.30107054049629
  C   1.78453767940598     -3.27538080329991      2.31234599695335
  H   6.78971857072661     -0.08154596736030      0.38643511436722
  H   6.44158540987065      2.33409007723078      0.31715963344263
  H   3.11067780639835      1.85162157278049     -0.13963889833007
  H   4.44634006438085     -4.41404380054038      0.81342076788051
  H   4.57165760727065     -4.15235302424919     -0.93059736508182
  H   1.19366584024570     -2.75504683661959     -0.97991328309974
  H   1.98817510475645     -4.30391420774600     -1.05158166333170
  H   1.85034371026438     -3.09513362457053     -3.26674234872831
  H   1.25901947232171     -3.43901892136169      3.22104301291781
