22
Coordinates from ORCA-job 5455optt
  Br  1.39686330609593      0.35998142759437      0.97290917759733
  C   3.10839747747313      0.00954880427127      0.26551554228405
  C   3.61119666957868     -1.23347465763019     -0.00567056578997
  C   5.06613572254073     -1.28348333680944     -0.15052226134164
  C   5.80919848405515     -0.13478695590336     -0.26514664203721
  C   5.22294026155647      1.16354592438672     -0.15864241923717
  N   5.75429633916191      2.33572148659347     -0.27457515946119
  N   3.87230719980435      1.13214844463589      0.18525053161081
  N   5.71871575152699     -2.48759340756759     -0.11913168932717
  C   5.01601669960116     -3.56695356671801      0.03984894831153
  Br  6.06209280562742     -5.17274357276925      0.25070606984033
  C   3.61812630769557     -3.68258922793248      0.03968756344534
  C   2.98271377990937     -4.95135041168727      0.08853021959696
  C   2.44034498529840     -6.02463185281011      0.13491065276145
  C   2.87712444209448     -2.47355591400468     -0.11706466369420
  C   1.53573636553642     -2.55174824655743     -0.63953686862501
  O   0.90000098394965     -1.63259274340134     -1.14436971133277
  H   6.87995599252780     -0.21784683567633     -0.38428484912405
  H   6.73712771954732      2.23770101608194     -0.50734090550965
  H   3.45709018237840      2.02926254208606      0.38501281419181
  H   1.97575786820536     -6.97876926819318      0.17814337895368
  H   1.10486065583527     -3.56578964798904     -0.61822916311326
