17
Coordinates from ORCA-job 5456optt
  Br  1.29302723623096      0.21397873471717     -0.62304793127484
  C   2.94362777273938     -0.04892702180529      0.31787546532842
  C   3.68136277529457     -1.18534623187798      0.06030360909500
  C   3.35991573118401     -2.48451522880703     -0.35201838181355
  C   4.49698225195277     -3.28231759159711     -0.29395050699764
  C   5.60602929314580     -2.51386298449804      0.16035600192577
  N   6.82570736821055     -2.78701265038200      0.49335770672532
  N   5.10570242736400     -1.16975951682552      0.27929518431858
  C   5.80251069170050     -0.03128897924283     -0.02438662468648
  Br  7.42665394024994     -0.16621749388192     -1.00032287569495
  C   5.29001064510908      1.20256385477027      0.19337110616255
  S   3.74100374750377      1.29741047383367      1.06523009596346
  C   5.86874804640388      2.40095693830864     -0.29359530584481
  N   6.28904325710264      3.41695180559314     -0.63713372604797
  H   2.35390428447425     -2.79400084809275     -0.58634989653107
  H   4.55282336372111     -4.34478500204252     -0.47025938601556
  H   6.99494716761274     -3.77382825816989      0.31527546538776
