25
Coordinates from ORCA-job 5459optt
  Br  0.44319325922177      0.55037476244497      0.02115830626951
  C   2.79366977559332     -0.18989919875017      0.55373609124131
  C   3.52406954272390     -1.25715257924104      0.15902634422279
  C   3.22290230549555     -2.57561127378622     -0.25662827568336
  C   4.38965599067290     -3.22269546166492     -0.54756482798702
  C   5.52402226497211     -2.32885715437760     -0.34493370540629
  N   6.80665416117055     -2.44207408702328     -0.52702610040471
  N   4.95659589696158     -1.16651933346155      0.10884515564430
  C   5.56495022141321      0.06623534604391      0.26728293542102
  C   4.81751347957432      1.10693775035123      0.65482075154310
  N   5.33440411595701      2.40302542272621      0.89522382705981
  C   4.92794989707366      3.42255760822704      0.04662540078395
  C   4.01557180709511      3.49752310003547     -0.97861709600570
  N   4.00058246509699      4.78221690531925     -1.42848924225591
  N   4.83016856346608      5.49626194689287     -0.75902122183157
  N   5.39644216138405      4.68308785143507      0.15452512875163
  N   3.44658927971227      0.96102088851010      0.87307162839246
  H   2.21732548111511     -2.96160872501190     -0.31628220382842
  H   4.49825691925925     -4.23671315306427     -0.90140296069010
  H   7.01490961251118     -3.37199418548659     -0.87517932321132
  H   6.62266970917146      0.11895071855322      0.05461055407139
  H   6.32529962201311      2.39068151559320      1.08796154683900
  H   3.38264253271858      2.72705446007660     -1.38476569171216
  H   6.05941233986128      5.05253145556980      0.81411731350488
  H   2.88754859576541      1.77266542008859      1.09290566527138
