19
Coordinates from ORCA-job 545optt
  C   0.84487259708335     -0.47166150043762      0.39319893349557
  C   2.31405204068317     -0.33626155989049      0.00267651079516
  C   2.80650709727270     -1.62132622534188     -0.65734076820825
  C   2.52741715108616      0.88236073470253     -0.89666374705765
  C   3.97906210771619      1.17452534941997     -1.28586809788305
  C   4.16395325486964      2.57058677859995     -1.83174887394987
  O   3.85537984965727      3.57813949918139     -1.10298134280229
  H   0.48530307999440      0.43906382475250      0.87649728672143
  H   0.68041565249639     -1.31174923746200      1.07497662116457
  H   0.23130842346930     -0.63763794902264     -0.49730783017380
  H   2.89881574908586     -0.18055948107452      0.91688867474339
  H   2.29169525820552     -1.77353311098001     -1.61145709940664
  H   2.61755428707275     -2.49529086605379     -0.02683920432899
  H   3.87642962924591     -1.57025051928849     -0.86279310390965
  H   2.15129915076564      1.77831272223370     -0.39396177851567
  H   1.93289282669313      0.76290625373487     -1.81214666380539
  H   4.34266220019443      0.44262150054388     -2.01609617292107
  H   4.58782434162901      1.04766748224082     -0.35994903193427
  H   4.95255530277902      2.66508630414180     -2.60108431202352
