21
Coordinates from ORCA-job 5462optt
  Br  1.23887301207657     -0.26870206048782     -1.35007137509124
  C   2.71141765111499     -0.20116000674324      0.01763799306870
  C   3.47279275224363     -1.35866645829267      0.12375513053315
  C   3.24478283156359     -2.73482358897581      0.08201986379035
  C   4.45885543778290     -3.40244015112898      0.23119460894107
  C   5.52046515803108     -2.45088286522382      0.33594108534493
  N   6.81509767849891     -2.50346170788423      0.42880144354710
  N   4.87105409269056     -1.19129498936260      0.28544195105513
  C   5.43620595193858     -0.06028583504019     -0.22989389593280
  N   4.79471090058212      1.02633454053860     -0.43201862274790
  N   3.46625044439897      0.97598560325023      0.03622123515784
  C   2.90506509485438      2.20796089937744      0.24092486901575
  C   3.47742261140373      3.42573834390273     -0.04146616437990
  S   2.37875670437299      4.61540208402093      0.42574177882995
  N   1.24856498055492      3.50443481385353      0.94787038047864
  N   1.65301647712840      2.30811450783213      0.79418136073555
  H   2.26823859733296     -3.17672057207023     -0.03838964252247
  H   4.61140642135241     -4.46976356956209      0.25704352087668
  H   7.10765455144602     -3.47567181395544      0.41270702618571
  H   6.48332245040900     -0.12636716987807     -0.49725539673619
  H   4.44404620022323      3.60126999582960     -0.47638715015005
