23
Coordinates from ORCA-job 5464optt
  Br  1.18670162305775     -0.01369071250528      0.13270446577737
  C   3.05040778364210     -0.14380709477278      0.36228919233091
  C   3.69293570967954     -1.35574755456806      0.24372932812900
  C   3.27662999640740     -2.67276746414917      0.09508418065349
  C   4.42677908319750     -3.49053916409385     -0.02822407352302
  C   5.61849721439680     -2.67548089337052      0.03936004619365
  N   6.88088924754145     -2.88997281917368     -0.02333557254229
  N   5.11907905061324     -1.35804916425852      0.22732550287114
  C   5.85417466911360     -0.25001796336504     -0.11775301434988
  N   5.47491881709536      0.96531427453186     -0.07589539892213
  S   3.94611868214779      1.33643703333630      0.57207615832775
  S   4.44514679969105     -5.17620227731182     -0.09420739428425
  O   3.16295107064695     -5.67925903280641     -0.52485624997016
  O   5.64972618863472     -5.64676821866158     -0.74525192851174
  C   4.65699834819645     -5.77890972434164      1.58598217133292
  C   5.24716649076149     -4.93933562856905      2.62375520529981
  O   3.85234378284243     -5.22165843407376      2.58699864374811
  H   2.25440645876894     -3.01113641942020      0.08143145959574
  H   7.04201442138269     -3.87256787504121     -0.22674487095552
  H   6.85612997750421     -0.49118545242365     -0.46031535294929
  H   4.77918301572796     -6.85934634962250      1.59934407036627
  H   5.51738280483414     -3.91744347272282      2.38515729278818
  H   5.78841876411629     -5.41786559261653      3.43234613859392
