20
Coordinates from ORCA-job 5468optt
  Br  1.04768437214940     -0.07470516128485      0.44768548557801
  C   2.90272629819378      0.05608080746900      0.19508660021692
  C   3.55267149370543      1.26357429742848      0.06059853043557
  C   2.92890163049980      2.52468714949440      0.04167313224611
  C   3.66683827364483      3.68863750863604     -0.10770543251825
  C   5.08971056939030      3.52733232883901     -0.23930863450346
  N   5.70869712143585      2.40313448937071     -0.18173659470429
  N   4.95714563063866      1.26521697446371     -0.01272256245316
  N   5.74569428931325      0.23802629534199      0.32008540950037
  N   5.30936438528248     -0.92027179355001      0.45215883742539
  S   3.76250365168823     -1.39220029680902     -0.03696652681775
  O   3.90065240823065     -1.73417256117138     -1.42535552621845
  O   3.31613342692497     -2.40562701800141      0.86881119989037
  C   2.99759492357854      4.96132662806528     -0.10990699445526
  O   1.76471597375563      5.06619350169910      0.04176331233787
  C   3.73153130798556      6.25452556969984     -0.28742537474625
  O   4.91177510033035      6.43995942218655     -0.48320666284919
  H   1.85513096519862      2.57882100187880      0.12814675153482
  H   5.72672282514822      4.38759773481881     -0.38426160858757
  H   3.02380535290540      7.10386312142493     -0.22141334131183
