24
Coordinates from ORCA-job 5474optt
  Br  1.07080501358752      0.21814674348388      0.72412932728807
  C   2.79138101427355      0.11969534913562     -0.21220982962539
  C   3.51297811152529     -1.08720488316585     -0.18381767207638
  C   2.90889571546050     -2.38235363448313     -0.14758604647343
  C   3.67150254318817     -3.49391160569169     -0.23408118651348
  C   5.12156334572738     -3.42534885112762     -0.37643489205361
  N   5.88785235190790     -4.46093231630387     -0.56412694819648
  N   5.69380435358857     -2.17600363659390     -0.27547150419161
  C   4.93534908829400     -1.10230832657463     -0.18615838700701
  C   5.67585097692169      0.16342913798809      0.02743563272832
  N   5.20769185009110      1.34793755030710     -0.04123273599011
  S   3.59359468066520      1.62781521933707     -0.41438288347416
  C   7.15445272234517     -0.00016766590897      0.29811689767463
  C   7.97141623904825     -0.17219558791065     -0.99574192598801
  C   8.38941679892902      1.27780882326434     -0.72046978395541
  O   7.82443510538313      1.23283142744609      0.59577288984712
  H   1.83171791144666     -2.45383066712504     -0.05641996459332
  H   3.21275091303694     -4.47651581590021     -0.20648243212626
  H   5.30475820168027     -5.29430054395647     -0.60507554192636
  H   7.31293657988335     -0.75589568467154      1.06486391949828
  H   7.39802487759267     -0.37323802428110     -1.89605933037750
  H   8.77041910286908     -0.90181689190649     -0.89452603843694
  H   7.87158634592003      2.01496262496451     -1.34069192007424
  H   9.45881615663438      1.49839725967449     -0.69734964395670
