30
Coordinates from ORCA-job 5478optt
  Br  1.32839013825419      0.53278718729891     -0.19197262895465
  C   3.21552545589543      0.28172697145631      0.05788027323458
  C   3.76937439480748     -1.01752843318112     -0.07064918423311
  C   3.16630303989880     -2.37736817207497     -0.01249591017924
  C   2.54361467015937     -2.79241935810190     -1.37952044149795
  C   2.03820939933073     -4.16510233556406     -1.37171489875968
  N   1.68236350503644     -5.25623704630155     -1.32801588205639
  N   4.30306546145747     -3.21516125356119      0.38614721874055
  C   5.57995833884230     -2.53330219696689      0.08782063947858
  C   6.69702097279733     -2.95707446584392      1.06511071246394
  C   7.57990641280140     -3.89439877147333      0.25133936060658
  N   7.57586554656887     -3.23336145738105     -1.05098249454790
  C   6.16949844276614     -2.92212427574090     -1.30820415502930
  C   5.16531490628851     -1.08425353924640      0.16044466165609
  C   5.90485252128548      0.03659100643441      0.39300024432304
  N   5.36651808665212      1.30609660029741      0.42365027220475
  C   4.02331077478794      1.36891435270725      0.26345246717284
  H   2.36364228860953     -2.46719040548953      0.73246779195515
  H   3.30262373152463     -2.69835250934281     -2.15855994540729
  H   1.72593705217860     -2.11032450687876     -1.61646876855941
  H   4.25759526049390     -4.15048309088862     -0.00117193131799
  H   6.26677344746126     -3.41089912213622      1.95518285605056
  H   7.27615100497711     -2.08121085223227      1.35821133668901
  H   7.13054577036174     -4.90095345742494      0.21367871119830
  H   8.59503175626615     -3.98629557442547      0.64054331689201
  H   7.97664594470625     -3.80777092997628     -1.78152541806609
  H   5.62194360868515     -3.80255157562324     -1.68270040275349
  H   6.06715617966649     -2.11283808252119     -2.03138612827976
  H   6.97720899381192     -0.02568654777103      0.55098507547640
  H   3.57765289362716      2.35877184195338      0.29745325149989
