23
Coordinates from ORCA-job 5480optt
  Br  1.28803228577657     -1.48532503851836      0.70792341077972
  C   2.97607661351257     -0.73175719618415      0.31474380717727
  C   3.17009031787542      0.58628557577511      0.22882857957670
  C   2.24706156390153      1.69728535502201      0.50308317566351
  C   2.31106951639039      2.66083622299932     -0.42118975979452
  C   2.96213220201773      3.93090152992160      0.00057612736923
  N   2.47160050841735      5.06828023606304      0.32346400824034
  N   4.31416896116176      3.68280786752249      0.00161895434408
  C   4.88868177552363      2.47480564222874     -0.07366683451409
  N   6.27820175342813      2.64613947029701     -0.22605376692013
  C   7.18732480449582      1.63221939998766     -0.29678750106602
  N   6.88351199128391      0.39010083179330     -0.24590365335364
  C   5.54621416331048      0.08965296830801     -0.10321227623485
  C   5.24770899967947     -1.31754256812645     -0.02851690903660
  N   6.04378610109809     -2.30819738779936     -0.10206367316743
  O   3.90690606419413     -1.68723261266300      0.14430914104089
  C   4.52257364214709      1.09097135198362     -0.01824683251835
  H   2.07061184386138      1.95471109622872      1.54465949011327
  H   2.59901332871955      2.35279710927493     -1.42391695080773
  H   1.46282100049020      5.02353492785467      0.20469243744706
  H   6.56247167314841      3.61185488999588     -0.25783255337712
  H   8.22286474064562      1.93799392242429     -0.40324254188531
  H   6.98007614892073     -1.93112359438913     -0.23126587907627
