28
Coordinates from ORCA-job 5484optt
  Br  0.39123668370873     -0.39672134784078      0.13126235354557
  C   2.85614835512105     -0.07784639296992     -0.43570873050203
  C   3.60308311239686     -1.21712704637436     -0.60225281525191
  C   2.91456390994827     -2.44875502970395     -1.11830632758626
  C   2.44271396742631     -3.42653513700711     -0.00337569964432
  C   3.13495270013170     -3.22274615870611      1.32749095466283
  N   2.58479060660189     -2.73273457671258      2.36154577771985
  N   4.45093510861045     -3.65247652676742      1.41356023606602
  C   5.32615700278024     -3.69161374556917      0.25931591875503
  C   5.88272946797819     -2.33377670690077     -0.19584534987822
  C   4.93570577751910     -1.15052908658531     -0.13016733766756
  N   5.47978962384868     -0.07349997644235      0.39947144833376
  C   4.75375357459608      1.07628163232314      0.53081693732163
  O   5.17446010393909      2.12943171346577      0.97563692179964
  N   3.41034488089415      0.99834407337437      0.11037161312499
  C   3.59960383186965     -3.15685381644419     -2.25705924708890
  O   4.47671128594192     -2.71854816543553     -2.94898855847557
  H   1.98873025761532     -2.08874772183075     -1.58849192488460
  H   2.57245835932925     -4.46651542964007     -0.32283240528959
  H   1.38212302699570     -3.25797531354914      0.16710025287179
  H   1.63014923836983     -2.44726844418686      2.15730054879173
  H   4.88025338496384     -3.31107891000327      2.26389717660127
  H   4.80326141580407     -4.20634186522977     -0.54648447159571
  H   6.17298703929478     -4.33653906767637      0.50249434454241
  H   6.24673796097269     -2.42713794181657     -1.22313736502881
  H   6.73258388886205     -2.06120747418805      0.42938582146791
  H   2.85388928524424      1.82893189231194      0.26358069398513
  H   3.18814614923578     -4.17041342989477     -2.46358076669609
