25
Coordinates from ORCA-job 5486optt
  Br  2.40627764512849     -0.53439503028743      1.71265482666987
  C   2.77690452365619      0.35060184677931      0.05747454009453
  C   2.52399155443069      1.65486333490261     -0.17305086206656
  C   1.91322544597028      2.57204039082606      0.80056400580797
  C   0.75047393313323      2.41906642644748      1.43784256887132
  C   0.03404761569620      3.62463067405817      1.93727681417521
  N   0.20603649491414      4.25893988648244      3.01376028390610
  N   -0.86002021134750      4.18747835039275      0.92430226145157
  C   0.01867085566154      4.79779032546671     -0.04578837459781
  C   0.61041176338153      4.07149356217645     -1.00585664349416
  C   1.78655265973897      4.38347764068005     -1.77990713052907
  C   2.78476696322119      3.46284087509702     -2.00024730930564
  C   3.02583534379421      2.16238688681950     -1.45931987069001
  N   3.89707527728309      1.40011825489509     -2.17777337084538
  C   4.15550701511120      0.14440556750909     -1.89432996727064
  O   4.90878198198158     -0.64621854215632     -2.40439614931235
  O   3.37970989159811     -0.46428480556341     -0.78449345337882
  H   2.40252534412579      3.53968187299651      0.86190762355641
  H   0.17029039097955      1.50882322548905      1.31456499827953
  H   0.90462432667704      3.77011614955456      3.57334422747717
  H   -1.33434920039603      3.41303688913210      0.46818021731327
  H   0.35152815922626      5.79245398577307      0.22582355364039
  H   0.27545315711880      3.04108761826159     -1.10656585078528
  H   1.92612200527974      5.39145467014894     -2.15495647547425
  H   3.55355706363567      3.73810994411855     -2.71601046349337
