27
Coordinates from ORCA-job 5489optt
  Br  2.96889451989785      2.47012744967190     -2.37374660697508
  C   3.60356045188937      1.59601373885960     -0.69791655336763
  C   4.83260035585817      2.01685852931118     -0.17499017662820
  C   5.64675049737661      1.07799075123582      0.45941560881136
  C   6.84573965729946      1.53740042293066      1.26449449963198
  C   8.16648080556460      1.55961498753624      0.51417899135649
  N   8.60639330004888      0.62458081723894     -0.21719128207377
  N   9.01738248338021      2.67639265902118      0.77137339559823
  C   8.85587467230074      3.86488862673395     -0.09117299828587
  C   7.48164423248968      4.51287024643117     -0.09731544292960
  N   6.50944549594534      3.61987393454555     -0.68907788445314
  C   5.26483915389852      3.43769571677014     -0.12552335824274
  O   4.68984193168420      4.34587939070151      0.44064224483781
  C   5.31435842736663     -0.27494543738637      0.43643021684853
  C   4.12654893653281     -0.72809588583626     -0.19636025620685
  O   3.72712498283144     -1.86342641060875     -0.32703040105929
  O   3.27794581908506      0.28088485013050     -0.69520735075120
  H   6.99210836411753      0.84736153083541      2.10184069332200
  H   6.67502870188335      2.51888474845496      1.70539734808977
  H   7.92293652777632     -0.13300550720835     -0.26990950203877
  H   9.95563214634493      2.33188715865412      0.59215842373066
  H   9.10997296345801      3.60682817011707     -1.12999937258509
  H   9.58416443355656      4.60228687213938      0.24980781745864
  H   7.15224437582390      4.75914656883892      0.91495896009468
  H   7.55563635177956      5.45455622002045     -0.65020634004917
  H   6.87098844638751      2.82041286948324     -1.18668040517435
  H   5.89886196542255     -1.01996301862221      0.95762973104060
