22
Coordinates from ORCA-job 5492optt
  Br  4.43467627716674      0.63250044763626      0.97021790698416
  C   2.96163907909907     -0.02530314439048     -0.03116914880750
  C   1.73362712488487      0.28804133596521      0.40993400216623
  C   1.41335681775864      1.00745118410484      1.64633854848105
  C   0.44656648345332      1.91747232162769      1.50368990239624
  C   -0.82883072499724      1.51768391260504      2.15064295305279
  N   -1.37293054817196      1.82952845849157      3.25375778381107
  N   -1.39232829044479      0.58857484636312      1.27637754348298
  C   -0.77917949603122     -0.03759986898710      0.30907261814461
  N   0.51152063386799     -0.18040337109223     -0.18139349499123
  C   0.64806351971209     -0.93778408696396     -1.38437735571597
  C   1.83157307678151     -1.30162863672645     -1.96209358097156
  S   3.44501060094729     -0.97709442007492     -1.39585129480296
  C   1.48677297342690     -2.02558603773936     -3.17522407773535
  O   2.24796869677003     -2.53660966319884     -4.01890139922802
  C   0.02837420053508     -1.99482290053613     -3.14601954843480
  N   -0.44889547271655     -1.35000308360144     -2.09064493566141
  H   1.51628680949605      0.45938633065580      2.57976219097962
  H   0.32216359794498      2.36926830854805      0.52262688520913
  H   -0.80981654027628      2.54866239699876      3.70227612838095
  H   -1.43048898465808     -0.62583685890413     -0.32632133165414
  H   -0.62212983454844     -2.43589747078131     -3.88870029508587
