21
Coordinates from ORCA-job 5497optt
  Br  1.28599254523660      0.75577524753633     -0.12076788976195
  C   3.19609294313604      0.20016950445053     -0.65375740603983
  C   3.69517194269992     -0.98724533684528     -0.11611482262911
  C   2.90743304802051     -2.24775120013853      0.04331150124359
  C   2.15117954097558     -2.34651441468505      1.39043403693831
  C   3.06525058264511     -2.42188161405906      2.52684417744151
  N   3.79061699160414     -2.51179602839403      3.41009356489414
  N   3.74879532711550     -3.43634649063101     -0.06737594871807
  C   4.98632861995365     -3.29579768189929      0.11062537959736
  O   5.71376201601193     -2.18638098376220      0.31833571573141
  C   5.06076725083087     -0.97229824375168      0.11978735355981
  N   5.85917744076552      0.05665928214292      0.10880436841029
  C   5.28791570814048      1.26235476304131     -0.17370738366859
  N   5.80603082206656      2.41262890920517     -0.04708253313440
  O   4.00218007212881      1.26647558823508     -0.74410611743670
  C   5.83859267455178     -4.47847205586223      0.07631213090720
  N   6.49598627826764     -5.41557791785834      0.04224767135084
  H   2.13865934232163     -2.31025503018887     -0.73006707790045
  H   1.53129123275399     -3.24474921673155      1.39517477069483
  H   1.51241788154108     -1.46976445480631      1.49807916746433
  H   6.74035773923250      2.28176737500215      0.33092934105546
