23
Coordinates from ORCA-job 5498optt
  Br  3.16265860803257     -1.27656040970744      1.73024164321287
  C   3.57271248761194     -0.00997791306131      0.36924749848911
  C   2.72833132376136      1.01418591182445      0.13552034777966
  C   1.53950316995011      1.33965649146031      0.93237290214632
  C   0.53172397438993      1.99152913293888      0.36243315026255
  C   -0.31463780684671      3.00902952173504      1.03864268731657
  N   -1.12825137406827      2.70308456906318      1.98244573758659
  N   -0.12646039364137      4.26429936746283      0.51197800966943
  C   0.96697661468308      4.60307871172020     -0.15266278352372
  O   2.18598672646073      3.92825777219750      0.10527240666343
  C   2.82741983139214      3.31594176564738     -0.91374767675274
  C   3.10293796188668      1.99789480955177     -0.90489119688008
  S   3.97710333974008      1.32953032182785     -2.29147929705017
  C   5.01357538285442      0.23386570118748     -1.40623506835828
  N   4.77282403917405     -0.27182924251076     -0.26415608190659
  C   1.04069225996720      5.69952144246075     -1.04472478170797
  O   2.07187314605888      6.07200869099438     -1.63971251095534
  H   1.60386182882322      1.24608098553064      2.01084076252430
  H   0.52955020946663      2.07863632959833     -0.72071346242558
  H   -1.56012901574742      3.56788863626811      2.31133630775504
  H   3.11896061077441      3.95886239453538     -1.73947241852944
  H   5.93398987725631     -0.03792911608854     -1.91674778906480
  H   0.07479719801993      6.20794412536341     -1.19078838625116
