24
Coordinates from ORCA-job 5500optt
  Br  0.98709922312134     -0.09325991950376     -0.21034287109407
  C   2.87619018290989     -0.11811425446139     -0.02949869241374
  C   3.56234496191521     -1.31813525165903      0.29934795557976
  C   2.92169722025154     -2.60636035155454      0.69385384452382
  C   3.25046061471283     -3.03757040062601      2.14678757979500
  C   2.63826718899171     -2.17414529219771      3.15386419081282
  N   2.13518747808592     -1.55078259787491      3.97404102066025
  N   3.23467304468423     -3.73793467401003     -0.19831404470540
  C   4.36934666708438     -4.04247206427468     -0.86675050598648
  O   4.40967518522021     -4.95185369848969     -1.68022192627941
  C   5.65852996867331     -3.26708539236517     -0.61964375062448
  O   5.70626220281522     -2.39312008311824      0.48044105275093
  C   4.96740262979857     -1.23489393307803      0.27388460791660
  C   5.61143277518875     -0.07691651279380      0.01242502445135
  O   4.93082698134776      1.09084949643260     -0.18604487689442
  C   3.52487384777792      1.10611849066886     -0.30594762895682
  O   3.04377216081230      2.17732619578943     -0.62059748842896
  H   1.84287075782702     -2.47871945966355      0.62363743940728
  H   4.33174735432647     -3.03691866283389      2.28339305892581
  H   2.88499706032371     -4.05230075325842      2.32354113527956
  H   2.46147297587094     -4.32533530979346     -0.47580286370127
  H   5.88096129581632     -2.72876434096536     -1.54686953547085
  H   6.42931292710164     -4.02318343675900     -0.47011450163296
  H   6.68459529534268      0.02057220638986     -0.04306822391433
