23
Coordinates from ORCA-job 5503optt
  Br  4.11002395318328     -0.17775424906516     -2.15869851875744
  C   3.24411640889095      0.46784784246903     -0.56154910745926
  C   2.79875051290991      1.82563608212751     -0.52334366650660
  C   2.41964301632732      2.63532833427738     -1.61155858343890
  C   1.72116187513567      3.79858993356710     -1.31704588835844
  C   0.55706117444909      4.29471278161144     -1.98768147155008
  N   0.11065564890832      4.12494839921309     -3.18027114242115
  N   -0.27960882668659      5.08420898028894     -1.11473288386272
  C   -0.69491401483729      4.66595671565140     -0.00948471463269
  S   -0.49959777373081      2.99619236140040      0.69349425481759
  C   0.32565161757352      3.38422313565249      2.24038820833074
  N   0.28361845544872      4.46538174321656      2.88765369971797
  S   1.20747065334887      2.02748963842693      3.01663073165970
  C   2.11941665409753      1.37937399006318      1.62141801151852
  C   2.36684329673175      0.02429164720056      1.47984890989683
  N   3.06111858808669     -0.38761404799860      0.38350259496291
  N   2.46848259466169      2.27381723891642      0.73101201778532
  H   2.47730233233459      2.21431552347240     -2.60806565126335
  H   1.83282664306627      4.15152046561319     -0.30419684061279
  H   0.78021434447884      3.55938099708435     -3.69960976200445
  H   -1.29764203908549      5.33335057369365      0.60596248310024
  H   -0.32067430772280      5.15763602218740      2.44926408511746
  H   2.05107919242991     -0.72083410906979      2.19506323396057
