21
Coordinates from ORCA-job 5505optt
  Br  1.21199830411867     -0.83167846041649      0.72971335616251
  C   2.88340166435180     -0.41758991820971     -0.20766200130445
  C   3.45048014077808      0.85364672785538     -0.01113313989925
  C   2.99220187815045      2.18401182085996      0.07802901371743
  C   1.57995612161689      2.68170014548621      0.10698666111168
  C   0.84009887759476      2.39183153731450     -1.12390422858144
  N   0.23721511651468      2.19860208726766     -2.07867565518437
  N   3.96471105592940      3.04961092672795      0.18625411103142
  O   5.15153117732119      2.29572654650763      0.16635318120382
  C   4.83948703450934      0.99023379436177      0.05972795555832
  C   5.70174609425870     -0.08574284877653      0.04510427351208
  N   7.10719860788852     -0.06144752128944      0.11696188096475
  C   7.90310659933336      0.94494791851316      0.53008556853860
  O   9.11819186577112      0.87541742516273      0.58178807902266
  C   5.12234912972220     -1.38338290189165     -0.07988424909252
  O   5.75103272522828     -2.42245645180470     -0.11518257100128
  O   3.74123046409713     -1.47759394328378     -0.20536166794016
  H   1.59042571283152      3.76071023938105      0.26120136045832
  H   1.04139080980618      2.20947964597191      0.93086068314576
  H   7.54862556250713     -0.94745816996612     -0.10004695781958
  H   7.34962105767045      1.85043140022849      0.81178434639569
