28
Coordinates from ORCA-job 5507optt
  Br  1.50677303183928      0.93005425713130     -0.63786881654872
  C   3.36797912988980      0.47028540664052      0.78788226818502
  C   4.20541462809431      1.54623025947031      0.90281424749325
  C   5.53684142378331      1.39206764524473      0.44709551408334
  C   6.00965257536370      0.18242595044309      0.05289689823765
  C   5.15700216699563     -0.97961372248477      0.11055004114401
  N   5.43126912185904     -2.20226069240113     -0.11960666259828
  O   3.84066973630518     -0.73039450491290      0.46593028425875
  C   6.32981924137820      2.66992009539434      0.34209568839855
  C   5.85500709697468      3.48538637087009     -0.87510658856879
  C   4.65460224284347      4.39085550018674     -0.57495466357842
  N   3.48690284946073      3.78592785138105      0.04759334890275
  C   3.76109852345932      2.95210160820771      1.22901213998919
  C   4.85497763357502      3.63447167747402      2.09543388438189
  N   6.22514296772228      3.46372760485376      1.57598947504109
  C   2.54773211651146      2.95704049563401      2.07530302193999
  N   1.67540854524258      3.03967023740720      2.81430492500273
  H   7.01692474468989      0.05577214501708     -0.32341912957289
  H   6.41583551428578     -2.27604038819064     -0.35923314547148
  H   7.38564925677514      2.42538494819572      0.20847697495657
  H   5.61798284219907      2.79106700294752     -1.68480626593880
  H   6.67545081171764      4.12636770030799     -1.21003531322683
  H   4.31589107650078      4.85176812096979     -1.50430307714043
  H   5.00388864955068      5.20609227780745      0.06394852406526
  H   2.94895159577423      3.22218950307173     -0.60640927197949
  H   4.78526758859211      3.20643973773480      3.09496599713816
  H   4.60391810450717      4.69537981785835      2.16803598120436
  H   6.77294678410935      2.99168309374003      2.28241372020153
