23
Coordinates from ORCA-job 5508optt
  Br  1.18571477103080     -0.15002888033034     -0.66123552380912
  C   2.90687430231092      0.04379637276542      0.25505011775254
  C   3.64020499115430      1.22309963706333      0.08559798367906
  C   5.04687366332307      1.14967348134886      0.04938602654159
  C   5.72171627374375     -0.04239978218181      0.05498466049948
  C   4.95530115970539     -1.26233592217345      0.10735883118447
  N   5.37210004040654     -2.46773035270402      0.05450340119206
  O   3.58503209808104     -1.14565984136374      0.26825330552342
  C   5.63781700646042      2.55125465898978     -0.02791958414828
  C   6.42173137796676      2.82516865524075     -1.31936777450996
  C   7.75816709550797      2.23687310358470     -1.29730298048011
  N   8.81947143828765      1.80534743000234     -1.26305974167972
  N   4.42869673336354      3.33906370320753     -0.02178513032396
  N   4.18053570126181      4.65937530267698     -0.09459570602240
  C   2.85991886716398      4.66326915510092     -0.06819500579035
  N   2.25194290070089      3.44835068374054      0.01180492570664
  C   3.28637228097790      2.61964059629448      0.03408729544611
  H   6.79892589315613     -0.11533239390733      0.01389057887436
  H   6.38233106975095     -2.45411840207627     -0.05401407183381
  H   6.25948471481825      2.79023698676650      0.83844982924878
  H   6.52392849493459      3.90442611022973     -1.44908255051662
  H   5.86440741519728      2.42424809275425     -2.16728541879372
  H   2.30645171069589      5.58878160497079     -0.10752346774042
