23
Coordinates from ORCA-job 5509optt
  Br  4.13950343141441      0.19151386623519     -3.20148889124353
  C   4.70830478056466      0.11338228107132     -1.39707717561488
  C   5.32563728456947      1.13111288282436     -0.77345683132457
  C   5.62920345556048      0.96209451581507      0.65552290034797
  C   5.11482008004381     -0.20165540580165      1.24834981599617
  C   4.47357286658673     -1.24187698843266      0.53321152661851
  N   3.98966411052373     -2.36202929420904      0.92279538001657
  O   4.37665669624852     -1.06743315790290     -0.85878873276150
  C   6.52999481870733      1.81598799863212      1.41765382741085
  N   6.66786779902173      1.90370741778152      2.69768162117092
  C   7.46269215694261      2.47505584560032      0.47236833562885
  C   7.12723941239523      3.58649359916006     -0.18029083078043
  C   7.43120158451892      3.58842488359349     -1.63676830939696
  N   8.33758124939416      4.12034241365399     -2.32487160710048
  O   6.55049884345359      2.72926007482200     -2.25503406290999
  C   5.38834904576222      2.44228104549721     -1.51552534335056
  O   4.48827647094846      3.21722330216885     -1.54977758528558
  H   5.31224511390541     -0.40384926533103      2.29168783962230
  H   4.10411502995902     -2.42889383872769      1.92991991046679
  H   5.93300475675982      1.36763124373632      3.15889050454932
  H   8.24194638150593      1.83648318735087      0.06081221310642
  H   6.30949446112902      4.20714023148381      0.16692747901605
  H   8.92013017008461      4.68360316097843     -1.71174198418224
