21
Coordinates from ORCA-job 5510optt
  Br  1.39915400572881     -0.83194637623697      0.60942894854415
  C   3.22671572644604     -0.47440972672007      0.31853365968819
  C   4.17300661561324     -1.39092247780566      0.11231785668072
  C   5.52377223675606     -0.88904065527343     -0.06286932982018
  C   5.79231215222699      0.43454470355841     -0.04963309828232
  C   4.72802749139581      1.38638099669610      0.16728087754561
  N   4.77160991247273      2.65610780779692      0.21800871809985
  O   3.45958881070916      0.85476026816224      0.35948952455315
  C   6.45112790553185     -2.02402619187775     -0.22127185826391
  O   7.66672313841629     -1.93015325414494     -0.39191434073879
  C   5.63724077774470     -3.23490353673373     -0.08364503131147
  N   6.15517432561794     -4.43186795175661      0.04089092944795
  C   5.37449103289664     -5.47643158381559      0.42987341199587
  N   4.14395279463040     -5.82131483268565      0.28277204353001
  O   3.37370773567670     -4.99729752367933     -0.60593840943517
  C   3.20923871127368     -3.69524811499514     -0.26384960276446
  C   4.22197684262551     -2.85259570754848     -0.01664347809396
  H   6.79928077625929      0.80369089547684     -0.18955982186277
  H   5.73101754743710      2.95545401660447      0.07143174147252
  H   5.90120968043678     -6.22660081028520      1.02108623173681
  H   2.17667178010424     -3.37417994473641     -0.31578897272179
