26
Coordinates from ORCA-job 5515optt
  Br  1.00997595767102      0.20490986904934     -0.44935253462149
  C   2.91189326138840      0.06879962506753     -0.29404847556736
  C   3.47728301254591     -1.13227491947335      0.11916243117142
  C   2.73002365679795     -2.38783776673036      0.45733798624279
  C   3.61113288773627     -3.58078781752098      0.10213093600767
  C   4.96429520555851     -3.46146629012850      0.75002653293016
  N   5.61423369008002     -4.37258846018433      1.33535344625638
  O   5.55234136130562     -2.24872219597690      0.66941874776545
  C   4.87003372066512     -1.13439738847062      0.21102459545416
  C   5.65977431014351     -0.04034311939267     -0.08049744234185
  C   5.04625796415197      1.14179025731538     -0.49012275568134
  O   5.69376089563415      2.25604062681571     -0.84576747515440
  C   7.10677314843735      2.35513834942111     -0.71175850082736
  N   7.80101809443846      2.63607806953466     -1.78265777942584
  C   7.60772425616276      2.23404981221036      0.60717608657012
  O   6.91875588279007      1.98080893148364      1.62885231321340
  C   3.65184462474440      1.19007137192529     -0.59727323685409
  H   1.79340777410210     -2.43607555775679     -0.09593300895843
  H   2.47613589406622     -2.41514150628343      1.52238457373927
  H   3.76074122237718     -3.59751690001477     -0.98159811166533
  H   3.16162928727524     -4.52672531836026      0.40040342703223
  H   5.08088093826225     -5.23647585568877      1.31533827546597
  H   6.73037997597849     -0.09671580783222      0.04448587938565
  H   7.17349120362584      2.67873703503711     -2.58146642379304
  H   8.69899872317672      2.36961253035533      0.66579354304175
  H   3.18221305088431      2.11003242559848     -0.91241302938590
