30
Coordinates from ORCA-job 5520optt
  Br  2.83225377107373     -1.05304977398640     -2.01289555435728
  C   2.38533061810017      0.38235716759304      0.04181916369456
  C   2.39287857763648      1.73424691724145     -0.16317758988702
  C   2.04037654330326      2.24234454877180     -1.53925040964202
  C   0.58817756427950      1.95304140116116     -1.97841538380332
  C   -0.37312247365808      2.92106250580158     -1.35688712284835
  N   -0.95684327613847      3.90222248425046     -1.91117591595636
  O   -0.50684309938542      2.68144542970583     -0.03724160630176
  C   -0.86764531183331      3.74866547557884      0.83394029618528
  C   0.37982165420021      4.14744914322706      1.60938686152072
  C   1.52210987342137      4.60584254664434      0.67788908692507
  N   2.80666297766424      3.93212823958658      0.89002415944572
  C   2.83312742404106      2.52653574025286      0.93398002320935
  C   3.31896492029401      1.92230213671415      2.07163201464857
  C   3.34732462357862      0.50898033523672      2.22772998606887
  O   3.73321695559418     -0.13375047093405      3.17585734934045
  O   2.79993670613479     -0.19865214771911      1.14911218581343
  H   2.68033055158727      1.71162436146169     -2.24595196221895
  H   2.26897114842101      3.30529571621709     -1.63168140383020
  H   0.35304737651800      0.92754273882348     -1.68834937092255
  H   0.50969522747113      2.02617011091308     -3.06364294720442
  H   -0.72491463927095      3.91671065820577     -2.89905887140305
  H   -1.27682714487159      4.57525628850041      0.25441222022180
  H   -1.63874019863538      3.36702685274206      1.50382687109973
  H   0.12014941933099      4.92907576626557      2.32810498304176
  H   0.71580253529234      3.27894169202731      2.18109049970480
  H   1.71143645796342      5.67243173328586      0.80401142176411
  H   1.22240988069862      4.47861180337685     -0.35883798080115
  H   3.25201614641472      4.29553208764832      1.72244674303357
  H   3.64989519077404      2.50560851140609      2.92030225345863
