30
Coordinates from ORCA-job 5521optt
  Br  1.19438216477778      2.89502296556112      2.63139849465890
  C   2.02264605247913      1.81412428127783      1.24160412396778
  C   3.21831816846208      2.26456632615625      0.70521921517828
  C   3.55341992296984      3.71487082555457      0.52024759501446
  C   2.88796074585144      4.32901444608283     -0.73975423868471
  C   1.39363885129313      4.45976053270530     -0.60758863425884
  N   0.73539283416868      5.50397545864265     -0.30353321991317
  O   0.77699064045519      3.29514444388987     -0.83808685823101
  C   -0.60711063964356      3.20371324141860     -0.51730862451653
  C   -1.02952715189243      1.73861398888524     -0.43757709189630
  C   -1.03587940468958      1.09808669599510      0.95752407231968
  O   0.10930230630382      0.33789822209271      1.33491759296730
  C   1.33155609671303      0.69382750370913      0.79804599440985
  C   1.78776953117426     -0.13104246786375     -0.23650570009757
  C   3.05457328608805     -0.06172749423110     -0.86521665820895
  N   3.54819474243369     -0.79398954339737     -1.81058929079994
  S   4.20550754190379      1.15873309595599     -0.23314847532464
  H   4.63326120999457      3.83666575113739      0.40304767383025
  H   3.25643087422311      4.29261016132056      1.39825980111629
  H   3.11758839699826      3.68373379971897     -1.59024940667489
  H   3.30233517309801      5.32209172329028     -0.92995119912609
  H   1.37754192140998      6.27554981907841     -0.15130363386981
  H   -1.16910984347726      3.73047083244087     -1.29311497250830
  H   -0.78451145977574      3.72200995536316      0.42760844162369
  H   -2.05933959246190      1.68683314230006     -0.80115996758941
  H   -0.41842131666802      1.14499125713136     -1.12126306297471
  H   -1.22224588727697      1.87099810279062      1.70932006202399
  H   -1.85628532818915      0.37916738996972      1.01182892058541
  H   1.12006587019667     -0.92228410605933     -0.55926964618102
  H   2.86655429308007     -1.51143035091708     -2.05840130683997
