27
Coordinates from ORCA-job 5524optt
  Br  2.05487624839722     -1.67736166943208      0.55743621028434
  C   3.01529330787852     -0.12664167339858     -0.02441350331914
  C   2.43312870561988      1.08228897073400     -0.25677143900079
  C   0.97948478041219      1.35261078570608      0.03477316061782
  C   0.67437644632077      2.02381268487568      1.38784389813167
  C   0.95114797078009      3.49712760153872      1.45085372223528
  N   1.65716382421339      4.03155841698871      2.34926308592285
  O   0.28398779059969      4.20804751387921      0.47050932053182
  C   1.08186798987180      4.98935655095128     -0.42211101897452
  C   1.82821461456798      4.02466850825208     -1.32797970260001
  N   1.42532642800583      3.68287843917269     -2.49080791112480
  N   2.87976564517653      3.44436812531780     -0.68267264484802
  C   3.29089537073121      2.08122438746141     -0.78559408722730
  C   4.64182715261717      1.79028190595529     -1.07199100123927
  C   5.19670758699370      0.52516491880026     -0.85483439319633
  O   6.31601804405015      0.09749090976301     -1.06699487176453
  O   4.30295740612213     -0.44674507499433     -0.26729856654652
  H   0.44248287712635      0.40601157631129      0.02263867913992
  H   0.55596357837433      1.95620324004824     -0.76871645838997
  H   1.22199307379750      1.53933277133753      2.19466684247934
  H   -0.39704642318026      1.91044132848194      1.58704262344513
  H   1.67922200922889      5.04609613117475      2.24175759904847
  H   0.38863432802985      5.60890647319011     -0.98672076662800
  H   1.76722255590001      5.63697402638898      0.13604212836646
  H   0.58669946147868      4.20485129435440     -2.72904458109128
  H   3.17188402116945      3.90693606014341      0.16956953002675
  H   5.28990520571681      2.54211579699799     -1.49644585427938
