24
Coordinates from ORCA-job 5529optt
  Br  1.28316174187206      0.02122175496745     -1.05852256223951
  C   3.10346414616532     -0.18817850777315     -0.52609211710439
  C   3.55683842768566     -1.30977293290147      0.04482606739275
  C   2.81801548019765     -2.56660064556332      0.31044942085372
  C   2.53320095449944     -2.71191652206089      1.81198386489987
  C   1.80958503832955     -3.93676029136329      2.14488862131722
  N   1.20515537253570     -4.87479227291132      2.40823833929515
  O   3.56653450807970     -3.72855965358113     -0.09994557925285
  C   4.87380131611445     -3.68484195944643     -0.42934641134469
  O   5.41083381356422     -4.69504430684850     -0.78454018021246
  C   5.60694968793076     -2.35972262963860     -0.36553614268747
  N   4.90753158106039     -1.38086072666144      0.45275799789592
  C   5.62881471203943     -0.13720976071741      0.69048885936059
  N   6.72469561433579     -0.15150156268920      1.41401024234440
  C   5.11816752640858      1.05557420917604      0.09781854586731
  O   5.55584423730762      2.20804624401728      0.18184429542013
  N   3.90374163280749      0.89458412105179     -0.69450834395609
  H   1.88545510239025     -2.60750052776098     -0.24938683880709
  H   1.93292600306370     -1.85960857690945      2.13404401408452
  H   3.48364638547189     -2.68039540928871      2.34743835842370
  H   5.73525387676986     -2.01339930980918     -1.40355890036851
  H   6.59659031699638     -2.55999896237391      0.03983154518371
  H   6.85512545065664     -1.09008735357442      1.78880793616503
  H   3.49466707371736      1.77932558266024     -0.94899103253097
