24
Coordinates from ORCA-job 5537optt
  Br  0.90322180288689     -0.28604398453217     -0.14579487989401
  C   2.80375315682772     -0.20757228092214     -0.00297306623023
  C   3.44807251514216      1.01594474564712      0.02224748009292
  C   4.86740039980709      1.10223093834466     -0.00416489774412
  C   5.67277546005513      2.36810533938554      0.07848021663720
  C   4.88562985233995      3.58755428581313     -0.38530047050590
  N   3.66243232303106      3.62212768274289      0.41735981489923
  S   2.50915900519526      2.51680505999967     -0.08830956785197
  O   1.46228794543935      2.65193858286675      0.87922083109222
  O   2.19730344007280      2.76509293268399     -1.47172425404421
  C   5.64662261887021      4.82249180498331     -0.16845735376566
  N   6.25143179974937      5.78164722295300     -0.00237899277508
  C   5.56936155717908     -0.12024514135889     -0.02091309184844
  C   4.94089654715847     -1.32948210241412     -0.00614596138810
  C   3.51378968533431     -1.44055034575966      0.01084538012740
  C   2.93188454158626     -2.74469005914900      0.02726594973680
  O   3.59475228826871     -3.79921055002507      0.03738438884643
  H   6.57397276166548      2.26882756124770     -0.53069427256296
  H   5.99496097170881      2.57145319117058      1.10791046390295
  H   4.66066344006808      3.51825733715792     -1.45716130043825
  H   3.19926400294205      4.52693040093636      0.43577114173240
  H   6.65430153906413     -0.08324815140434     -0.04474654244976
  H   5.49664598081477     -2.25789085074254     -0.02285604816642
  H   1.83441636479280     -2.79447361962472      0.03313503259757
