25
Coordinates from ORCA-job 5538optt
  Br  0.85227324380690     -1.06390077121587     -0.96367710225285
  C   2.61081504441211     -0.53365188164375     -0.51257726121641
  C   2.87959027353375      0.79083085972251     -0.33601728941899
  C   1.92885335324946      1.90146769668757     -0.47956518765425
  C   1.86886157849532      2.78496588797376      0.52077911253694
  C   2.16400243023206      4.18073802348963      0.18561333909378
  N   1.42453425889583      5.18521113713729      0.01648373344666
  S   3.96948672156079      4.16343523212577     -0.14423424853018
  C   4.62721555001035      2.57704652541032      0.22144324512211
  C   4.21245099206585      1.24695092959272     -0.02265938125489
  C   5.17707915156040      0.16351368024319      0.05022034422014
  N   6.51430913525336      0.51868799753036      0.22707698092724
  C   7.61638249475761     -0.29642763581055      0.41272786047059
  N   7.69701622912009     -1.55021157651930      0.55366554785217
  N   4.90212018411558     -1.10029347172252     -0.06632369873873
  C   3.61588817462741     -1.55398385096557     -0.33113024691527
  N   3.33966694215127     -2.81598801101051     -0.42338504486248
  H   1.62013815567768      2.18744403216388     -1.48162217359846
  H   2.26177183212851      2.47651909269401      1.48537361866505
  H   1.96603579763340      6.00075106373746     -0.27434441887322
  H   5.53607764467545      2.71939311332163      0.78963801714228
  H   6.71899938100161      1.48777087515429      0.05644612702934
  H   8.53098755403538      0.30002356946859      0.44555133948159
  H   6.76674819748644     -1.96063268991188      0.47276771014407
  H   4.20269567951333     -3.33165982765307     -0.25925092281623
