22
Coordinates from ORCA-job 5539optt
  Br  2.02814491595924      2.10823397411390      1.28056252783916
  C   3.53188960447209      1.18411679238915      0.60822841232152
  C   4.62795847102909      1.74623226690552      0.06973847614834
  C   5.76075211002177      0.91293880422980     -0.27726380049912
  C   6.71506527183559      1.55882577320065     -1.05616637093341
  C   8.14879047339873      1.51655987252613     -0.86830586981469
  N   9.07519642227536      0.71656001129247     -1.18750943464129
  S   8.72104732766833      2.97305451112940      0.04406712017030
  C   7.34015803877189      3.81587650857609      0.70958008371187
  C   5.99815747072236      3.87761408141409      0.68569790338995
  C   4.81445659477995      3.22370663529972      0.01520189107560
  O   3.96783562367376      3.96624088887667     -0.43242615018930
  C   5.81296103926585     -0.42002775764402      0.26943184041670
  N   6.83268487547933     -1.23041226324493      0.34154359266987
  C   4.52627689299276     -0.99828589576747      0.72465436852485
  O   4.29965115465720     -2.14135634309068      0.98840722031094
  O   3.42562958959727     -0.12475961744638      0.82901804066972
  H   6.40780146377779      2.52128129140469     -1.45227899368281
  H   8.67812151785163     -0.04398268558448     -1.74182500761430
  H   7.78862412875162      4.59326897071154      1.32517527326170
  H   5.60970666661217      4.72018632104762      1.25200949573421
  H   7.67309034640611     -0.76087214033949      0.01745938113017
