22
Coordinates from ORCA-job 5544optt
  Br  0.96321410064386      0.55270351244942      0.26953964558115
  C   2.86097828298448      0.08348013767810     -0.65123669071448
  C   3.43829266555390     -1.13654264544360     -0.30774347510331
  C   4.82965813289989     -1.21803123836102      0.03534498383121
  C   5.58063697139836     -0.00542797456053      0.11190384505149
  C   4.94725741725366      1.13715261881273     -0.19713260750923
  O   3.65222868396947      1.18392915983270     -0.61994977867684
  C   5.51858998889160      2.50015065803116     -0.13195207300320
  C   5.95673789885160      3.08219733534322      1.14500537072454
  O   6.88950588984291      2.60471535589291      0.18982502297863
  N   5.25044657500759     -2.46335118736762      0.29227405128929
  C   4.12405730048492     -3.20073197480418      0.12642648670457
  C   2.97864434010060     -2.48174257047023     -0.23211572936696
  C   1.83003782496743     -3.31034443252132     -0.36936345034619
  C   2.11780748244598     -4.61722365594535     -0.12550463846753
  S   3.78833500636145     -4.88991790800274      0.28325218268458
  H   6.61668704547152      0.01997111170979      0.41888344112735
  H   5.17082533651743      3.17829970780643     -0.90622884065250
  H   5.86388557073384      2.47501854289651      2.03840583807017
  H   5.94416949124669      4.15903528810483      1.27928686050081
  H   0.84243785323548     -2.95603799038899     -0.62852108484799
  H   1.44256614113708     -5.45730185069224     -0.15639935985556
