23
Coordinates from ORCA-job 5546optt
  Br  5.20033271210022     -0.86103086874090      3.42064518213047
  C   5.21785890377672     -0.27973644294057      1.63769580956659
  C   4.59728628562466      0.82362587243233      1.16243369284545
  C   4.64908271075041      1.13294477393742     -0.23911505995087
  C   5.19048570344882      0.06837000493467     -1.04569754918776
  C   5.79072211251675     -0.99121660075445     -0.49831964226224
  O   5.96041852065125     -1.13221416985878      0.86266311665776
  C   4.13838959701826      2.29615968474850     -0.84392753958557
  C   3.81368775165580      3.50655323273558     -0.25196545072921
  C   3.26515626620801      4.63581947364410     -1.12327036642612
  C   3.03536635001399      4.35638557919028     -2.53642114911687
  C   2.83639741068174      4.14742833131729     -3.70111217293956
  N   3.99157373972701      3.94425616751764      1.00322118699805
  C   4.20586733401936      3.17823626929737      2.07779859397382
  O   4.67825117100530      3.55838121709529      3.14598730385236
  C   3.77066751598563      1.71117157067186      2.03974206301503
  O   2.83562129063266      1.29589368300624      2.67610184240069
  H   5.11936923048954      0.12065794142641     -2.12465876703914
  H   6.21988488490337     -1.82226185796442     -1.03625870813842
  H   4.04671721207827      2.25280141948619     -1.92272070666248
  H   3.95324259281608      5.48061285768840     -1.03326554837418
  H   2.32668701981781      4.97060924039581     -0.67278983784471
  H   2.66093368407824      3.95255262073372     -4.73076629318307
