28
Coordinates from ORCA-job 5548optt
  Br  5.24461893379908     -1.43848457999650     -4.17736083034989
  C   6.01583385419359      0.13554191064382     -3.44803323872452
  C   6.21861343733297      1.24983148576275     -4.14948977502843
  C   6.80280942153408      2.45285507460704     -3.42645932422904
  C   7.21366085271278      2.15313886174096     -1.98276701542374
  C   7.52971308887739      0.69981409548426     -1.86304069428201
  O   6.39102638136784     -0.07118175303236     -2.13523172213361
  C   8.71056779944760      0.11587121386410     -1.66321790427038
  C   9.96489297428035      0.85957172789734     -1.93105039123834
  C   10.00323807054142      1.41164282639487     -3.15209201705571
  S   11.12474796985211      2.39033144564369     -4.05752726321326
  C   9.99480175660154      2.55938834356404     -5.53078558172268
  N   9.61573325915768      3.74760266478464     -5.78087624974545
  C   9.54895695224974      1.29228799688394     -6.03805617180031
  C   8.20419099471060      0.98199182681459     -6.17924347805654
  N   7.15540826635071      1.79376583969301     -6.31461812824934
  C   6.03871813306742      1.47855811982410     -5.61151249158132
  H   7.65824727387397      2.80389350639976     -4.00789571204433
  H   6.06474716025624      3.25911828922577     -3.46375151700201
  H   6.37469071963411      2.34449401908731     -1.30650575568413
  H   8.05726768698941      2.76675892248465     -1.67464623230980
  H   8.73635582169183     -0.96289695345083     -1.53986001748029
  H   10.78964674150217      0.88194093969494     -1.22821613012821
  H   9.13365551893523      1.20991944214815     -3.76163924694024
  H   8.98162077440549      3.71023147675701     -6.58228720976668
  H   10.21734232565154      0.45353557347419     -5.90289499809863
  H   7.97416073404057     -0.08960352079478     -6.10527781214849
  H   5.10473309694229      1.93508120439949     -5.92866309129252
