25
Coordinates from ORCA-job 5550optt
  Br  7.34216093603840      2.99319274887971      3.59269551115834
  C   6.58295006052947      2.94074651436347      1.69623274463736
  C   7.34205155979907      3.68306577496740      0.75185749203734
  C   7.00953899863708      3.60319914506964     -0.62418536184519
  C   6.17287329439175      2.77870850741504     -1.36045000262782
  C   6.41949270984202      2.72578836760640     -2.73083747975228
  O   5.56209494673970      2.34112037038116      1.55626599895912
  C   7.49550040007704      2.50670522716833     -3.47097509442521
  C   8.73018359604723      1.97051722929158     -2.78066467572453
  O   8.78078540544991      0.88250249753043     -2.26052697972389
  C   9.82073533092954      2.97957332360435     -2.58297559813382
  C   10.21101475319456      3.17910496229545     -1.32191953189403
  N   11.07217683549970      4.17896862364525     -0.84062620554442
  C   10.67211066085942      5.07240256183889      0.17767163836339
  N   11.43793845535636      5.90429887564997      0.74751310009148
  C   9.18734567014811      5.01765905815932      0.35475003197758
  N   8.62062553756975      4.14020227332509      1.07482897372496
  H   7.68851435910870      4.15367967915159     -1.25969051299949
  H   5.40809702601909      2.17276177111716     -0.89284918704583
  H   7.58747189433951      2.81500390240784     -4.51020915984898
  H   10.08040850816408      3.66275497552867     -3.38409874534701
  H   9.78437277012869      2.55021279696104     -0.54825034568974
  H   11.79120424403180      4.51511346484471     -1.46344037556042
  H   12.40507998270659      5.77129325827343      0.44649535574507
  H   8.65727206439213      5.59342409052398     -0.41461159053197
