27
Coordinates from ORCA-job 5552optt
  Br  5.32662667442496     -0.14771606608779     -1.72971382560904
  C   7.02484142194159      0.82520807114398     -2.11354722716870
  C   6.82420007114362      1.89990389255653     -3.01664611439581
  C   5.87960090890099      2.98000763342124     -2.53854754195383
  C   5.91585489619964      3.01105541651269     -0.96879316393056
  C   7.26860071048319      2.52100497056208     -0.52890884153220
  O   7.61555807551043      1.25535089967709     -0.87673912489272
  C   8.16447054072738      3.38146085895742     -0.01848903127427
  N   9.54402100271627      3.16762432574483     -0.11831383761583
  C   10.19303865542444      4.18585563534773     -0.49794196582005
  C   11.60752205918579      4.16910213640161     -0.95857802621431
  N   12.60502197276557      3.84954039658311     -0.23486729146032
  C   11.77795503386690      4.68455513887703     -2.32772727497488
  C   10.99409669576923      4.41298264499921     -3.39376693823071
  N   10.02522048207655      3.46587792200717     -3.57073031799385
  C   8.83049115552951      3.36729302208403     -3.16252144502825
  O   8.12845963989159      2.30806986985021     -3.49840237317007
  H   6.14665639884773      3.95554819826932     -2.95396007851871
  H   4.85706903367168      2.76804704270909     -2.85591035707265
  H   5.13638823676244      2.35290348418518     -0.58685018898704
  H   5.74945095867738      4.01534446819966     -0.57766758777564
  H   7.82337341597735      4.38943626475789      0.21217760309476
  H   9.69338587558238      5.15337101843473     -0.65478431296318
  H   12.27205625299249      3.55186835515118      0.68353770274021
  H   12.65454350764903      5.29647414090277     -2.49955391997589
  H   11.29138838300080      4.88583865104917     -4.32920869890755
  H   8.32410794028092      4.13599160770278     -2.57154582036890
