25
Coordinates from ORCA-job 5555optt
  Br  2.43328727988762     -2.10004064152246      2.26513337996612
  C   3.83580668864595     -1.44750659677161      1.17880931795163
  C   3.74037625243560     -1.19316854217055     -0.12682901749114
  C   4.85470613297066     -0.41438526221205     -0.69718679619636
  C   6.05698141496995     -0.46560291422159     -0.11666205428232
  C   6.09356209112978     -1.41666651023243      1.00435930147738
  O   4.99519488864619     -1.27614196589579      1.86861849032708
  C   6.82160060406841     -2.53106277905955      0.99063802594253
  O   6.57240345461231     -3.63399912817268      1.73917302988458
  C   5.31143066608422     -4.18816357009074      1.60506402127470
  C   4.49883395735931     -4.18957753182279      0.54665380164471
  C   4.64784989051464     -3.81843647086175     -0.87065442651311
  C   5.74860540138214     -4.36361805217016     -1.59621115918787
  O   6.73083103924198     -4.95104902407136     -1.13326556456840
  C   3.65015968514858     -3.10345606887837     -1.57668407742951
  C   2.91393474728294     -1.95717628254691     -1.12104134859667
  N   1.83116439636689     -1.51535656657838     -1.68996241559892
  H   4.65680221108380      0.15826379968013     -1.59586435095357
  H   6.93493138702310      0.04713840884261     -0.48557766411141
  H   7.65592812430843     -2.62066570984440      0.30491031618362
  H   4.99890689526042     -4.62511887655677      2.54401636232870
  H   3.51861254152423     -4.59287454644260      0.79027427530221
  H   5.68060676889029     -4.20303899728367     -2.69286843045425
  H   3.52149156989910     -3.32158392321626     -2.63500104668257
  H   1.57799191126339     -0.62171224789985     -1.27184197021717
