26
Coordinates from ORCA-job 5556optt
  Br  3.63821427101938     -0.66894675783506     -2.50920121298272
  C   5.45400446993653     -1.25207080278212     -2.41057410341805
  C   6.25113590627409     -1.93096078710987     -3.45813182851664
  C   6.62769180446394     -0.53114108430488     -2.94975435617842
  C   7.64936294167403     -0.47205453928799     -1.84128056708389
  C   7.19483052739229     -1.67209271701076     -1.06192914407423
  O   5.79835236534358     -1.72225013376522     -1.11185235503089
  C   7.90249383176249     -2.72209681413583     -0.65676102208633
  S   9.65237941296220     -2.85529919458025     -0.86583107361303
  C   9.91463128425826     -2.64583681155604     -2.67782125525311
  N   10.95374096554585     -1.96919207815423     -2.95099987266859
  C   8.91942266317724     -3.23570548865508     -3.59791827427152
  N   8.18143119184985     -4.30122896492633     -3.30976863966277
  C   8.67611052898497     -2.49689479319494     -4.82781942633852
  O   9.51240293075680     -1.74461951216194     -5.36580445931883
  C   7.32229524827018     -2.55104253282873     -5.50555519126989
  C   6.18178423309891     -2.18511046044171     -4.91362863436586
  H   6.77713333661847     -2.75353584600436     -2.99283170289055
  H   6.49706838547167      0.27400474778380     -3.65752722223089
  H   7.52886726035539      0.44195015846126     -1.25164859301898
  H   8.67995875367239     -0.55128029676235     -2.17757223790594
  H   7.37217164698120     -3.58509213883433     -0.27379023404397
  H   11.04397021980963     -1.92776137599506     -3.96859648249782
  H   8.46678597131599     -4.66914256530557     -2.40350536197859
  H   7.35163439586805     -2.71069644751334     -6.57888779350195
  H   5.25512545313620     -2.08190276309894     -5.46800895579784
