26
Coordinates from ORCA-job 5558optt
  Br  6.81934564883368      6.10726740852923      2.46825259502684
  C   6.20898330910590      4.86881705751859      0.79081334911521
  C   6.82154426434316      5.23640154288752     -0.39861555019951
  C   6.52198504465378      4.50048228429549     -1.57803487937812
  C   5.66230645191364      3.44601589637382     -1.75948820038592
  C   5.31443851728282      2.97696891880020     -3.04805295073153
  O   5.45506443126332      4.00675081736714      1.11781761613321
  N   4.66845887848037      3.38616301185342     -4.03833164480913
  C   4.03795517345338      4.64819628412054     -3.85642169117301
  C   4.67528682383568      5.80519457625893     -4.00202879125646
  C   4.21097920961497      7.04724525162031     -3.33061760256976
  N   3.03607953655994      7.54454299296044     -3.35244281067584
  C   5.27526344164573      7.52477779182184     -2.43413167596918
  C   5.03951798102336      7.80073172841349     -1.14404725401933
  N   6.00100692778260      7.96043230167743     -0.16743455435204
  C   7.33252113932253      7.51664546023689     -0.45913441133687
  N   7.72463970672511      6.32630136017044     -0.57613909447184
  H   7.00370239910243      4.89909461772202     -2.46616581096778
  H   5.21356906360522      2.94591306396915     -0.91071412895269
  H   3.02489800740463      4.60539173132466     -3.46491187244181
  H   5.70844795186683      5.78057247832470     -4.33181519245986
  H   2.44698314702570      7.00171015806072     -3.98394263765859
  H   6.29321964619472      7.33994271112243     -2.75524187705077
  H   4.01673868172883      7.87996287672557     -0.79338220841140
  H   5.70326067256763      7.73689032733269      0.77504440110162
  H   8.05480394466380      8.31158735051210     -0.63383312210540
