23
Coordinates from ORCA-job 5559optt
  Br  1.90432136389142     -2.26429578633830     -1.16880160770649
  C   3.41961330690287     -1.10499750949664     -1.11581184762335
  C   3.80335398517171     -0.36252562335352     -0.05865407606679
  C   4.99313664984551      0.46772286416423     -0.30109614406059
  C   5.93232146578120     -0.01530596598712     -1.24610772191150
  C   5.58400512124000     -1.12830883662409     -1.97683451076355
  O   4.13597415597081     -1.15750573648865     -2.23248185499582
  N   6.22480019849333     -2.26554605945623     -2.21840834693694
  C   5.67874061328504     -3.23193063637502     -1.37346298976227
  C   5.31974669642940     -2.91003266564873     -0.11427464977843
  O   4.56063014410603     -3.71735441884234      0.71909320328439
  C   3.62206488172954     -3.15901997275047      1.51668045256711
  N   3.20830554507113     -1.99720538858889      1.76373881617700
  C   3.38220846747037     -0.66411234384830      1.34360933277639
  N   3.19237517166457      0.22098119039706      2.23684584162431
  C   5.34527812497359      1.53457034233199      0.54877628355768
  C   5.66806902996849      2.45759813950437      1.26054933771666
  H   6.97752989683184      0.24683942218499     -1.14401374718272
  H   5.54114125546834     -4.24401610387554     -1.74861233828644
  H   5.57752825666701     -1.95837716378989      0.32262239793221
  H   3.15442531821185     -3.98148444737940      2.05760410428182
  H   3.34675079902539      1.14401410817445      1.83742227283369
  H   5.94867955180046      3.26029259208605      1.89661779232363
