23
Coordinates from ORCA-job 5562optt
  Br  2.63939239750045     -0.78471277499916     -3.36045446837409
  C   3.60159973663353     -0.48681711441101     -1.76127586084172
  C   3.06808056888855     -0.57568490782214     -0.53523925381588
  C   3.99584930598665     -0.26437472353336      0.56663926048497
  C   5.29836619074970     -0.48070016010926      0.37946207168698
  C   5.59370055517169     -1.04305906742591     -0.95068223809623
  O   4.92541653936402     -0.30713993776421     -1.96453018782650
  N   6.10403520744677     -2.13239477354385     -1.25456796109294
  C   6.56489326531970     -2.95296324870170     -0.16621321707202
  N   7.77515636556076     -2.75572971394091      0.22789635443123
  N   5.74252582225453     -3.91453850913917      0.31287988690258
  C   4.43405238554432     -4.06684032432136      0.21220060003589
  O   3.66011251761749     -3.08523534335276     -0.39319202673254
  C   2.37577698908276     -2.79046454284045     -0.06226812890152
  C   1.97341093552789     -1.51814312030502     -0.19752791830815
  C   3.82158365747308     -5.24694062327439      0.71308348251531
  O   2.60929431998878     -5.54278197417399      0.64839085919276
  H   3.58070812090774      0.02105248378922      1.52581627698184
  H   6.06836415701474     -0.41035053316580      1.13348694358268
  H   7.96657243771635     -3.44368558045894      0.95427865622297
  H   1.76209240417754     -3.61955428685552      0.26376425261880
  H   0.95085595636232     -1.23752094484832      0.00957021437632
  H   4.54916016371055     -5.92342027880194      1.18548240202927
