28
Coordinates from ORCA-job 5570optt
  Br  0.57189297234376      0.88074184777685      0.55988367102698
  C   3.07515510413376      0.11407152717726      0.35422080624011
  C   3.65038446344009     -1.10528984943265      0.15043327870276
  C   5.05990934651168     -1.12406116907501     -0.06029028061760
  C   5.71718712843879     -2.46583121752544     -0.24810647591769
  C   4.87786818355701     -3.52974465913254      0.43624622251574
  O   3.58116330155222     -3.53962761820364     -0.11688202156792
  C   2.82183634315620     -2.36237979178865      0.15344208512265
  C   1.96359539059885     -2.55259714184749      1.40562120815188
  O   0.84152526501952     -3.32967621058093      0.99332115857185
  C   0.44131164918230     -2.82213317047842     -0.26449998265118
  C   1.72755286472616     -2.39368913694041     -0.94743666091010
  O   1.89162982236581     -2.17160811497694     -2.10912975151670
  C   5.78628181970835      0.02962039406423     -0.05325984627285
  C   5.17259606062161      1.32008075068697      0.14295652550268
  N   5.71630228790667      2.49068637181916      0.17036407803077
  N   3.79305255396363      1.23826970374274      0.33925771792026
  H   6.73623028945703     -2.45145374966724      0.14459219130047
  H   5.76543687326545     -2.70456550559043     -1.31417244247202
  H   4.83643038457112     -3.34357027447045      1.51798456830620
  H   5.28314550339042     -4.52922072749745      0.27595323270357
  H   1.63415832098725     -1.57812777030568      1.77656831348023
  H   2.49125121057368     -3.10331045940955      2.18398151926986
  H   -0.19649552890601     -1.93555780826596     -0.16051255438181
  H   -0.07251482969634     -3.59948134430018     -0.82818385383004
  H   6.86060200175554      0.00193282886725     -0.19176447702702
  H   6.71553403389192      2.40278948507292      0.01227232877410
  H   3.30497718348335      2.11573281028174      0.47713944154481
