28
Coordinates from ORCA-job 5571optt
  Br  0.89042315917577     -0.28080363333688     -0.24669901719386
  C   2.78350291220390     -0.25512847580451     -0.04579465988599
  C   3.56602812142339     -1.43808031516838      0.02538690153975
  C   4.96184681076813     -1.31331912857258      0.11401873722444
  C   5.62802586070295     -2.65065847975484      0.16406308406543
  C   4.46651628013417     -3.62291703901773      0.05775116789480
  O   4.58663449347254     -4.82178676623577     -0.00859371315453
  C   3.12177765083269     -2.87409224903363      0.04499039298321
  C   2.32131909693096     -3.19227113224226      1.33003045555799
  O   1.72102819041157     -4.47534435602275      1.33471964817616
  C   0.87051562428914     -4.64048327088704      0.22114739583446
  C   1.66982546188762     -4.53132344519258     -1.06491633777326
  N   2.38321740915814     -3.26231726043340     -1.17761878027461
  C   5.56686286525421     -0.08988887679697      0.13929682647815
  N   4.75894583904427      1.04716649869299      0.08062771842602
  C   3.36237469649300      1.04377965559366     -0.03068976570489
  O   2.78308232218322      2.13335312111101     -0.09822594551373
  H   6.17452565978441     -2.83934071708765      1.09502156977442
  H   6.32795795809860     -2.82901108122484     -0.65867269918863
  H   1.54765261006790     -2.42545527457971      1.45400817898192
  H   2.98618758572594     -3.15747866620011      2.19459529187021
  H   0.08041559061126     -3.87407287490021      0.24249215835215
  H   0.41055029446007     -5.62598294169150      0.32153506097015
  H   1.01069158651571     -4.63406039793538     -1.93059744835068
  H   2.39925366883877     -5.34278928330228     -1.08871550089363
  H   1.73204416314213     -2.51629424750091     -1.39760069062839
  H   6.63318286424473      0.06493898191482      0.20595263499868
  H   5.15861122414475      1.96966165560949      0.08148733543423
