21
Coordinates from ORCA-job 5575optt
  Br  0.99933851595014     -0.19365233208823      0.06370350782403
  C   2.88093017374672     -0.01617282759981      0.06521557738192
  C   3.51960244257095      1.16589048929306      0.06428667012805
  C   3.06876016337832      2.53223378565552      0.06225790567226
  C   4.16837518618310      3.33576162928948      0.06207601220895
  C   5.41895461770431      2.55969123233642      0.06404619772081
  O   6.57440258166585      3.02191312800493      0.06426042567229
  C   4.98625995630386      1.17275298338035      0.06536501562663
  C   5.64897001029741     -0.03569990913601      0.06723343764924
  O   7.03182071947278     -0.06976587391207      0.06806208047099
  C   7.60019356385173     -1.30943319766536      0.06998882686105
  C   6.86773860538633     -2.43655838749642      0.07087146284697
  N   5.48506749794082     -2.48258117100539      0.07003665105431
  C   4.95519792171804     -1.26369117577151      0.06821825432630
  N   3.57426376913463     -1.19264670559006      0.06715785147219
  C   7.57069386200974     -3.69042058800762      0.07281878970687
  N   8.13582481046529     -4.69128825175376      0.07391922349531
  H   2.03122212313199      2.83127481182582      0.06115878252118
  H   4.16914172101939      4.41732297819660      0.06071810091032
  H   8.67810257040747     -1.28050736980940      0.07063490626052
  H   3.09313918766108     -2.07842324814654      0.06797032018979
