25
Coordinates from ORCA-job 5577optt
  Br  1.27026162557758      0.26149371511104      0.35183706612306
  C   3.20319597841071      0.05222159157588      0.20367491210218
  C   3.68210143732505     -1.25064994789123      0.03568725612705
  C   2.81720094370521     -2.46788426836254     -0.13599989075548
  C   3.66134918323876     -3.64456182737971     -0.60837360568260
  C   4.94002906362450     -3.67599128872315      0.20301294459527
  O   5.72808436380986     -2.52696579964232     -0.04448961810023
  C   5.09544277454675     -1.32487803642484      0.04365951652805
  C   5.87208922223501     -0.18794496971178      0.12874151019016
  Br  7.74717937306036     -0.41695183688559      0.22976010884268
  C   5.25153495994023      1.10219736598161      0.18643360923831
  N   3.87497607230313      1.14050798385462      0.27671420289745
  C   5.91805755262917      2.36182120286171      0.15084489879091
  O   7.13563674437131      2.55876516513622      0.00283847166609
  C   5.01089398791180      3.60531103397246      0.28027553261108
  C   4.64448759947919      3.90199751377277      1.66227634312260
  N   4.37124192271398      4.16088819915977      2.74691539093475
  H   2.01390107290574     -2.26088361891896     -0.84581498112523
  H   2.32589749381521     -2.73028522570545      0.80911969884403
  H   3.92513478803824     -3.52706286257636     -1.66259831654016
  H   3.12187902814068     -4.58731935524899     -0.49773756401632
  H   5.57541695756268     -4.52196913246843     -0.05700063552116
  H   4.70411698159141     -3.73106076726242      1.27340837924230
  H   4.08855798502764      3.48862639290074     -0.28691340421889
  H   5.58733288803567      4.44557877287498     -0.10527182589591
