24
Coordinates from ORCA-job 5578optt
  Br  0.68204682752576      0.05357320787871      0.10094574867284
  C   2.59164249411045      0.09251313405192      0.09873785377861
  C   3.26905171283747      1.27115754058445      0.10075611237895
  C   2.72529014403286      2.68037881524921      0.10425799337375
  C   3.97449608152337      3.58031569667662      0.10539597995992
  C   5.17802718572434      2.63085251339431      0.10197776077141
  O   6.35684134652839      3.02497319641098      0.10175086202466
  C   4.69281339619086      1.29273105943136      0.09961076700417
  C   5.44061748433297      0.07987382746718      0.09662565447874
  C   4.70670766975525     -1.09039467347968      0.09457795153682
  C   3.28610601927597     -1.14462132138166      0.09545620086933
  C   2.92863090836724     -2.53664243149476      0.09268141763223
  C   4.11015065116908     -3.23164727579252      0.09042960919790
  N   5.19309242681742     -2.41719691680374      0.09140732918080
  O   3.96037602612664     -4.54553440037057      0.08735765697401
  N   2.56677179439578     -4.78368903902617      0.08734964720066
  C   1.99432759664036     -3.59852511722223      0.09042197784051
  H   2.09228687506265      2.84132747256358      0.98000417874944
  H   2.09108290620515      2.84527184800476     -0.76988457514619
  H   4.02465411022814      4.22891286552959      0.98439447517569
  H   4.02310510895007      4.23338398638041     -0.77036929881810
  H   6.52234651959725      0.09906391293241      0.09592911530020
  H   6.16001121321731     -2.68302902681503      0.09029686670098
  H   0.91552350138520     -3.56504887416912      0.09088871516267
