25
Coordinates from ORCA-job 5580optt
  Br  0.87246445262642     -0.26113508753216      0.13355918008957
  C   2.76672873318631     -0.06863673259925      0.04562122208005
  C   3.56416725754751     -1.14208210671928      0.00341796166335
  C   3.10990893210702     -2.58458620749443      0.00627353974969
  C   4.40427846934583     -3.39899228616802     -0.02857317635899
  C   5.54367027103297     -2.38570373345311     -0.08105339702673
  O   6.72403199503388     -2.74940126929905     -0.13644198781196
  C   5.00079395967666     -1.04905726982404     -0.05175989876691
  C   5.70149462143134      0.16938664613963     -0.06763489845795
  C   7.22675122836625      0.14169083500750     -0.09057569964743
  C   7.79395689282264      0.73202819701622     -1.31328377919399
  C   8.25159096335872      1.19274701141168     -2.32064665638441
  C   7.82075396078707      0.75664296429020      1.10725856898318
  C   8.29500298876636      1.24150944805964      2.09524667731286
  C   5.08224306016371      1.46004913818930     -0.05424791001062
  N   5.60894033429125      2.63157114949693     -0.08474457625825
  S   3.28727094014638      1.59407883495470      0.02268400810515
  H   2.47154124192751     -2.78070725734604     -0.85791073680246
  H   2.50644119951549     -2.79257637741341      0.89200755689585
  H   4.47454650584440     -4.05576965962432     -0.89814296699197
  H   4.53575579625853     -4.02778640379154      0.85469861086257
  H   7.51112998928284     -0.91648966182140     -0.08641850629956
  H   8.64258538522535      1.60723581485263     -3.21715216152110
  H   8.69837326754159      1.67934195471572      2.97505424036225
  H   6.62357755371385      2.58164205895189     -0.12823521457221
