24
Coordinates from ORCA-job 5587optt
  Br  1.16344564104042     -0.13778053386069     -0.26532100367014
  C   3.05213395651370     -0.19203738200651     -0.06197010581410
  C   3.75745765547695     -1.32762757408139      0.02399098818315
  C   3.29782433879299     -2.77184290270874      0.03796710060804
  C   4.61861698014901     -3.57005757169387     -0.03893629686854
  C   5.75354689351538     -2.54549282488865      0.08975591861569
  O   6.94399261617030     -2.87270243730735      0.12148460100272
  C   5.18580870152727     -1.23309198514842      0.10687159251358
  C   5.81763211407401      0.01468672010666      0.12981261759056
  C   5.05734799367179      1.21839100594866      0.05719469914223
  N   5.44774073493027      2.45646701186088      0.06400154554519
  N   3.66374034804324      1.04310984944468     -0.05051969531730
  C   2.50534854199294     -3.09882807067673      1.26344508707009
  C   1.18062138704386     -3.26017651173045      1.46014996836145
  O   0.96122726527844     -3.52364258703892      2.74876971391428
  N   2.20954018065144     -3.52375945061837      3.36826694347264
  N   3.07818705728037     -3.28033132307688      2.50891000513194
  H   2.65444373714212     -2.97200316572949     -0.82290903733428
  H   4.71650374364827     -4.09295121248347     -0.99389010560194
  H   4.69914809984204     -4.31650901061878      0.75320879678913
  H   6.89489502461011      0.08373127214075      0.18849143408403
  H   6.45956587870733      2.48027448723519      0.14393978273304
  H   3.12290260288500      1.88973189467416     -0.10211065086698
  H   0.32632850701271     -3.20555769774223      0.80939610071553
