27
Coordinates from ORCA-job 5588optt
  Br  0.44294305165864     -0.07179062946660     -0.75796864838787
  C   2.97100539827972     -0.11905781127085     -0.08001523340186
  C   3.69432417591143     -1.27026479575721     -0.01273215347288
  C   3.02267004234529     -2.62898043088678      0.08241097535216
  C   4.04865773654402     -3.70894054335504     -0.25562458568745
  C   5.36470115879515     -3.39873989750420      0.43127009860536
  O   5.93453150140218     -2.19343857186264     -0.06081302415501
  C   5.10457722259683     -1.11556365631679     -0.10988390045041
  C   5.69801249325835      0.10920640792149     -0.28330560585340
  C   4.92390902203235      1.30714329485919     -0.35916504698117
  O   5.33732185845600      2.45465086295900     -0.50508748562164
  N   3.54074305953248      1.07576679422710     -0.23727173632053
  C   2.38124808375953     -2.86913629242044      1.42240551638689
  C   2.63714911600000     -3.76735540165836      2.44273242314878
  C   1.66991527561567     -3.47368799468404      3.42272500663354
  N   0.87869340070796     -2.48476552055804      3.04330324747796
  N   1.32995360953801     -2.13643723162094      1.83518983645875
  H   2.21899915692292     -2.63812347510128     -0.65932565012121
  H   4.22013308612860     -3.72588215919704     -1.33425994193387
  H   3.68973817032256     -4.69452540822552      0.04546161807486
  H   6.11185011007084     -4.16894037016123      0.24247064988846
  H   5.21927043687124     -3.30565679564361      1.51232754376536
  H   6.77187044495860      0.18842159661922     -0.35939866585987
  H   2.94999561564306      1.89474834925181     -0.31043139992742
  H   3.40526440412330     -4.52077148932076      2.47806959996369
  H   1.52052685438052     -3.94118954614346      4.38361778041140
  H   0.87999551414456     -1.39768928468286      1.29529878200734
