23
Coordinates from ORCA-job 5590optt
  Br  4.25798672332970     -0.69860331432071     -3.10755721579845
  C   4.91075621748077     -0.65619068337104     -1.31845054202340
  C   4.46876216009942     -1.64334147658476     -0.47430179969174
  C   3.58079353608749     -2.73504926476668     -0.57512823105299
  C   3.55892603190314     -3.43932471136906      0.63750800985073
  C   4.43312697169943     -2.84135455782815      1.60158837475282
  O   4.68278104804444     -3.16431755547223      2.77219648361573
  C   5.01087350023804     -1.66434438242395      0.87836979972471
  C   5.80942457854357     -0.69363272568761      1.30988991635372
  N   6.20207349444814      0.36422666512727      0.47554633589975
  C   5.91202755713755      0.31672313086111     -0.94965311203329
  C   6.50599756951140      1.07343166579704     -1.93552545637952
  O   7.54098221537698      2.00307485623678     -1.81958474416084
  C   7.70914907863433      2.43643193876349     -0.56339044737629
  C   6.63744435422755      2.65898975865001      0.23079966873647
  C   6.65521668909475      1.53349985035349      1.19013197822410
  O   7.03266621193049      1.46593921963469      2.32754414054905
  H   3.01983672127735     -2.98290347063089     -1.46418228923728
  H   2.97066890933337     -4.32127153914907      0.84612978663640
  H   6.17710433358872     -0.62431747818292      2.32229534713272
  H   6.18731214654293      0.98267258289134     -2.95540292029340
  H   8.73872657948034      2.38156298488602     -0.21858709167781
  H   5.70736337199000      2.68309850658581     -0.32923599175119
