27
Coordinates from ORCA-job 5592optt
  Br  1.17242669644990      0.22134924266238     -0.62538147665770
  C   3.03940945957638     -0.01284683392299     -0.16483912567646
  C   3.61776866388087     -1.30919111393490     -0.31086063558778
  C   2.85288132771404     -2.58954564926922     -0.17926643404207
  C   3.75591445187376     -3.72766066072277     -0.59467879900589
  C   5.08990272284792     -3.62347185702686      0.13288607494813
  O   5.76585092945571     -2.44672185264524     -0.23112900777513
  C   5.02157340716902     -1.28428494935119     -0.06538247605532
  C   5.69120295353485     -0.14001027131522      0.26072395895058
  N   5.09826697299363      1.09096114576402      0.37960355310126
  C   3.77278852066139      1.10473217801020      0.12919169293977
  O   3.10615600681080     -4.96903104897404     -0.21699478770309
  C   3.41049138112968     -6.07080291065142     -0.86510301636832
  N   4.29318463214677     -6.17963243544610     -1.76595648981219
  C   4.39722489247923     -7.48106107491395     -2.38064660614411
  C   5.68184311691990     -8.13535411308623     -2.08207311191210
  N   6.66274500948118     -8.68286175455648     -1.85802969285645
  H   1.94668289863806     -2.57837985852761     -0.78825822173856
  H   2.53360092558015     -2.78732958469572      0.86265618564731
  H   3.92368623825468     -3.73706677990081     -1.67169336364602
  H   5.73816244742118     -4.45954799835094     -0.12991802602002
  H   4.89503724875827     -3.63948976140606      1.21538375233125
  H   6.76582995320091     -0.18928751768777      0.40137948984551
  H   3.27824323317652      2.07093268335070      0.16337951774924
  H   2.78261494260366     -6.90352097838637     -0.52992036597940
  H   4.33613930843172     -7.37727546247009     -3.46623481734736
  H   3.60537165880965     -8.17760078254519     -2.07283777118506
