23
Coordinates from ORCA-job 5593optt
  Br  1.10301135741112      0.33231942172088      0.58186953399063
  C   2.93112589815743      0.14688704159336      0.11329671492829
  C   3.53852505521011     -1.09399298241668      0.04293115155629
  C   2.90845968867303     -2.45169114996889      0.18908055335033
  C   4.08406214320121     -3.43108905434706      0.05758974928861
  C   5.31480825110661     -2.57277464656609     -0.24500049674187
  O   6.43296065806665     -3.02392493385054     -0.42648214323721
  C   4.90036692747416     -1.18203342358822     -0.24017203259649
  C   5.64019275501902     -0.03055453117979     -0.44576654002908
  O   5.02201944673151      1.20605049357469     -0.39755609170877
  C   3.67638359143868      1.35620266131768     -0.10302819388362
  O   3.25418119626927      2.48774768855767     -0.05920406237483
  N   1.89415995063289     -2.62912460921848     -0.85196856789342
  C   1.00312439004674     -3.63222029564898     -0.79241790002433
  O   1.01827082622612     -4.52221262046785      0.03569229044058
  C   -0.02083300412984     -3.58209771466622     -1.84794940800105
  C   -0.86306088826751     -3.55546873448168     -2.69817650516197
  H   2.39770264664323     -2.56130718309267      1.14997610525382
  H   3.91995625055496     -4.15866464463560     -0.73843712909527
  H   4.25049158960937     -3.99453411640432      0.97726546355494
  H   6.69241634898637      0.02560936955378     -0.66382376417559
  H   1.72671020459175     -1.86254791742296     -1.48606185944253
  H   -1.61303528365314     -3.53157811836190     -3.45165686799742
