28
Coordinates from ORCA-job 5594optt
  Br  1.03824900695397     -0.45076151666108      0.25464279188477
  C   2.86608678689842     -0.06697992857621     -0.08275524591494
  C   3.83279029673002     -0.97702052129861      0.05311782697175
  C   3.75320190079419     -2.42611353142108      0.46042825299656
  C   5.20099144896100     -2.93015308303796      0.33199463376178
  C   6.05045947080261     -1.72364072540204     -0.08670280641534
  O   7.28260835063428     -1.81033129466831     -0.24732557634123
  C   5.19280336091859     -0.59479347941766     -0.23886472055707
  C   5.45953393806024      0.72911703390844     -0.61898432503170
  O   6.72567490072596      1.15701886170118     -0.93678192387830
  C   7.67121227192257      1.16326865325083      0.12332709845205
  C   9.00249159404780      0.75031627240831     -0.46363746662209
  C   10.15676126500032      0.84788970080860      0.47471798029789
  O   10.11855350184635      1.28632820084738      1.59513891923616
  C   4.41813253606392      1.70240432635772     -0.75458918722685
  N   4.52216365691587      2.95070647120620     -1.08616838362709
  N   3.12427814016105      1.22370089309316     -0.50609153801300
  H   3.06130760085218     -2.97558208840212     -0.18172311520115
  H   3.37532183737051     -2.51958519011334      1.48139163530895
  H   5.30587703837804     -3.71515432976667     -0.42172093539088
  H   5.59147444596613     -3.33896288674594      1.26730471579514
  H   7.38176133300554      0.45275155464449      0.89780358895548
  H   7.72043897923873      2.16386402904754      0.56505932536974
  H   9.24309499819554      1.35630749592039     -1.34601586995476
  H   8.91833610600637     -0.28613154324156     -0.80861729149201
  H   11.12090489195201      0.47511556335691      0.06836644423676
  H   5.50454943061666      3.14739646911484     -1.25469085307028
  H   2.39594091098088      1.91702459308663     -0.52462397453032
