21
Coordinates from ORCA-job 5597optt
  Br  1.05069647665985     -0.05357784562381     -0.08094716673368
  C   2.95137119199754      0.05343269652245     -0.01941369869385
  C   3.59243920970066      1.32178765286780      0.00633376566321
  C   2.82924797602822      2.61532158165472     -0.04695316677864
  C   3.76756780811048      3.76964248087840     -0.36291577966466
  C   5.05445995261496      3.61275879441382      0.44073577472963
  O   5.73597349390420      2.43763688936241      0.11481361339013
  C   4.98651667310916      1.26518510597876      0.07143771010512
  N   5.74751162082053      0.19792739569115      0.07871553716952
  C   5.11261455561182     -1.00019173407786      0.02829139337438
  C   3.68052353089343     -1.09786969555830     -0.01008305763653
  S   3.29212367623402     -2.76396979822520     -0.04473958975093
  N   4.96812913862306     -3.23210390315656     -0.01212411074485
  N   5.74176418660797     -2.17645207510644      0.02326755423202
  C   4.76581900607643      3.69915405019671      1.89725906357095
  N   4.53267539934879      3.83987658153834      3.01056804089826
  H   2.31518330398584      2.80370059746389      0.90361127615162
  H   2.04733799644326      2.55996950123493     -0.80746884077124
  H   3.30869818230408      4.73569773429394     -0.14718002236722
  H   4.05857992078719      3.74941462042568     -1.41496430655738
  H   5.74776670013843      4.42665936922513      0.22075601041416
