25
Coordinates from ORCA-job 5598optt
  Br  1.28408752845749     -0.48200069596679     -0.41973634107368
  C   3.10183227281840     -0.15170330524071      0.03698754788124
  C   3.63786416562807      1.09542904459422     -0.00191497540819
  C   3.00102085503193      2.39952691799901     -0.39956027950398
  C   4.13103605027554      3.43272762924935     -0.25507941418567
  C   5.35040155328510      2.66641425417618      0.27783593028431
  O   6.42299175223363      3.21896908100306      0.53785502549965
  C   4.98753795871979      1.28304777284198      0.39288302139704
  N   5.79781618428819      0.26473714265459      0.82676673347577
  C   5.23541545275323     -0.93922551740460      0.84715488252397
  C   3.93647951953218     -1.21740582662374      0.47980251904190
  O   3.41823719411146     -2.51095095798293      0.60801667076251
  C   3.18809520933748     -3.20237429839580     -0.51217482066001
  O   3.55494459091552     -2.90687887962570     -1.60989963163595
  C   2.31195123242577     -4.41559794131496     -0.23046867325559
  C   2.70772044678057     -5.21157195772217      0.92450516304994
  C   3.02702106934438     -5.88805607850908      1.85936167605899
  H   2.14986573446592      2.61545772651098      0.25108336543241
  H   2.60699898438030      2.33738860922388     -1.41646269817933
  H   3.87969249432776      4.23974675604987      0.43714413880321
  H   4.39100119403889      3.90201501577625     -1.20746486879147
  H   5.84932067117216     -1.77284971895311      1.18286849116611
  H   2.30107213230282     -5.02542961475840     -1.13217388756664
  H   1.30261239671289     -4.02269353264462     -0.07291972952570
  H   3.31798335666049     -6.47172162493678      2.69859015440915
