24
Coordinates from ORCA-job 5603optt
  Br  1.05915410746955     -0.10505514433495     -0.32975249602061
  C   2.93706336830870     -0.04398660914267     -0.02164215103111
  C   3.63168270089113      1.19019035282802      0.07826859508356
  C   5.04505859669872      1.24047572237454      0.16894549082426
  C   5.75223801718940      2.57909151588439      0.19300268180553
  C   4.87031924004836      3.66020441340067     -0.37456389274837
  O   3.63331410989073      3.63285757275939      0.31903011657035
  C   2.85834345523611      2.49669770584375      0.05221449496222
  O   1.78806866714188      2.57817933832612      0.97754496689744
  C   2.04854168498221      2.22872556367707      2.25823135983532
  N   1.20042686170002      2.33563688915840      3.17893693401615
  C   2.21881225360072      2.72138554127816     -1.28900946725818
  N   1.85765491758617      2.97669566305693     -2.34624265299156
  N   5.86703541739199      0.22336936373312      0.23112016937605
  S   5.30555420686476     -1.34068400402358      0.30528439790804
  C   3.54250820504625     -1.32853857998541      0.04445733430475
  N   2.92307759547244     -2.45340504014393     -0.05075398730433
  H   6.68140639729355      2.48300636294340     -0.36924081251502
  H   6.01258199105834      2.83385319576920      1.22466382289158
  H   4.69678426311621      3.51877080690574     -1.44770627037180
  H   5.27732282141720      4.65863975564145     -0.21801515072134
  H   3.04709615592311      1.83781837311467      2.43592041417665
  H   0.32664049874014      2.70613415558292      2.80244003522019
  H   3.57731446693225     -3.23106291464744      0.01986606709023
