20
Coordinates from ORCA-job 5606optt
  Br  1.46706097308545      0.53237602278893     -1.08918075503489
  C   3.10678040928743      0.14164075701482     -0.29366664186349
  C   3.65260773190368     -1.08444254069138     -0.05738112657386
  C   5.09585541435759     -1.12718046270206      0.11207136162534
  C   5.78587034178085     -2.28974163306256      0.02873210255085
  C   5.16596178593618     -3.57478123436419     -0.21943902803260
  O   5.82149236549993     -4.62611025421903     -0.37737250558749
  C   3.72710001481295     -3.53263799458616     -0.20233754401437
  C   2.96882775401991     -2.35595004853844     -0.04893893341650
  C   1.59696999297417     -2.52119339163792      0.33054174379838
  O   0.82783575516135     -1.68021058112871      0.78988233494720
  C   1.11698446200809     -3.91299188929319      0.17211948137029
  N   1.81343606990845     -4.93804151362130     -0.12286592672478
  O   3.15265875410352     -4.76602463442319     -0.28413290845817
  N   5.79047251556191      0.08390303426908      0.31614071532799
  C   5.14871374043301      1.15807865848281      0.18925793864958
  O   3.85042060783948      1.30587170657689     -0.15796800411853
  H   6.86401616350724     -2.27083426002335      0.12556059233947
  H   0.05919661287007     -4.09724330407616      0.32320630126140
  H   5.61073853494866      2.12651356323517      0.34677080195420
