25
Coordinates from ORCA-job 5607optt
  Br  1.35510361946596     -0.19688200743122      0.68628711679372
  C   3.15045845900285     -0.21479131611722      0.05882430701699
  C   3.82942144497973      0.97442434281019     -0.29808203512993
  C   3.09175170705712      2.20613737653055     -0.36442382111754
  C   3.32896835408143      3.55395246904500     -0.22563462388670
  C   4.38816257166217      4.43359092053035      0.25012743959956
  O   4.20685940556956      5.65343398853890      0.19769761362395
  C   5.67551638912847      3.98364207913387      0.85757192116700
  C   5.82335746202239      2.68431368530904      1.59958708213993
  C   6.47272874829348      2.84867949424989      0.26741584994918
  C   5.96517191027072      2.12697941017694     -0.97934850324175
  C   5.20611962315073      0.87091434895411     -0.65525241866199
  C   5.92606235143097     -0.30257992212854     -0.72289278432508
  C   5.45872381074421     -1.63304798526973     -0.51032231172055
  O   6.12159697532112     -2.65257678589718     -0.59553041906307
  S   3.71459245857366     -1.84434498643317     -0.14333346383028
  H   2.04240014192835      2.02050666845637     -0.57158856070924
  H   2.46990384683667      4.17050088525853     -0.47069888755447
  H   6.23866317511726      4.83105756360429      1.22413116914145
  H   4.95495230839505      2.04378134589273      1.66563934474034
  H   6.45354643832211      2.69116077624346      2.47784347134707
  H   7.54498912730136      2.99753353769941      0.29190598274070
  H   6.82801907245945      1.86035078595240     -1.58936234012801
  H   5.34195397444993      2.79887476791153     -1.57171335114356
  H   6.96897662443516     -0.25861144302055     -1.01584777774776
