19
Coordinates from ORCA-job 560optt
  C   1.05758624720426     -0.07032040591861      0.67408260271770
  C   2.51592326832323     -0.44203060874637      0.43185997598912
  C   3.37403415132960      0.75215144382068      0.00483538393166
  C   4.78357572121502      0.34882380035263     -0.34617369040047
  C   5.78382005816008      0.56692562687412      0.60110610529996
  C   4.98447711918970     -0.26473242683230     -1.59822892704067
  C   4.04839775265602     -0.53368552453479     -2.59199063190018
  H   0.46143272401467     -0.92987257821912      0.99189040116326
  H   0.60728023782796      0.32918249366902     -0.23866370937385
  H   0.97191773338384      0.70081513069737      1.44519726284983
  H   2.58349240307376     -1.21058038387604     -0.34243948216422
  H   2.95193314766792     -0.86889114464578      1.34009668776727
  H   3.38834101786172      1.48798262035165      0.81727618946906
  H   2.89610745126299      1.23674516055076     -0.85745562805168
  H   5.56999173647609      1.07140484712737      1.53574264062171
  H   6.80858690574923      0.26181253774337      0.42023285230024
  H   6.01236221640846     -0.56194453997138     -1.80735171282291
  H   2.99755486296666     -0.28793669781590     -2.49055180032049
  H   4.35118524522875     -0.99084935062669     -3.52546452003538
