30
Coordinates from ORCA-job 5611optt
  Br  0.86996091956932      0.35211654417357      0.73938370719803
  C   2.89311397102142     -0.07751512947161     -0.47296560227529
  C   3.49853948420192     -1.25388980283633     -0.11824617226921
  C   2.68260372866938     -2.46067462836007      0.24404516573583
  C   3.44083678167135     -3.76465412990635     -0.04940686490184
  C   2.57510438177893     -4.90732967637864      0.40210206312283
  O   2.86813650241987     -5.73184779529223      1.22761930564327
  C   4.82266404164351     -3.76632341580560      0.59345565165178
  C   5.70534426781216     -4.92429147803693      0.11792213888069
  N   6.24253421809522     -4.51592373608638     -1.18871167083261
  C   6.23836898444003     -3.04199727266193     -1.22802902362937
  C   5.65130491822873     -2.56120994093586      0.12450510435400
  C   4.91454836234835     -1.25585388972653     -0.02809556456505
  C   5.61841624698646     -0.09543655167740     -0.16892433578982
  C   4.95173446121797      1.14501199224763     -0.45731771712054
  N   5.43161247060165      2.32138135672606     -0.58212547234626
  O   3.58885902874870      1.03686621736772     -0.67942080509296
  H   1.73151206132741     -2.43400035041051     -0.28941792324645
  H   2.43087370101123     -2.43026429256643      1.31206740046035
  H   3.53124765303660     -3.85252695221550     -1.14220363297674
  H   1.57232391482745     -4.93253360452724     -0.07199311078341
  H   4.70022009448760     -3.77307401421982      1.67860840071628
  H   5.17435269733995     -5.87183113999969      0.04015664673084
  H   6.53117563437040     -5.06447353794336      0.82176919590092
  H   5.65088622173361     -4.87714694891419     -1.92342240673941
  H   5.62565283703538     -2.67154421520078     -2.05302510312094
  H   7.24595501059627     -2.64647398909708     -1.36849025875199
  H   6.47853641652836     -2.42123968897221      0.82533272190757
  H   6.69835124531816     -0.07796066637255     -0.08940723264576
  H   6.43322974293240      2.28264073710035     -0.41576460521472
