24
Coordinates from ORCA-job 5612optt
  Br  1.09246471982950      0.20222161986470      0.12229569206332
  C   2.98408710369437     -0.03473815731941     -0.03079823821435
  C   3.58918349379830     -1.22657857332761      0.12572374838971
  C   2.83629410167395     -2.48832627183424      0.49158045736260
  C   3.50135338858090     -3.79958272701587      0.02935375472988
  C   3.35622399462208     -4.05764292403611     -1.44908714032637
  O   3.10141902091661     -5.14145233537543     -1.92404926204715
  C   4.96916122284127     -3.67781213441874      0.21937805699632
  C   5.66967268774167     -2.48257159667616      0.17162326048614
  N   7.03414456070033     -2.74682048680921      0.20151674032269
  C   7.13529481988051     -4.04573580177270      0.24619384093765
  N   5.92775845999324     -4.67153755697226      0.25035142140536
  C   5.03146594884641     -1.21662760564068      0.06245549644033
  C   5.70721780575658      0.00819240827340     -0.10558026025701
  C   5.04055589460134      1.22546020728693     -0.26009173542242
  O   5.45284644926280      2.35872384846346     -0.40735546906701
  O   3.58519778401869      1.13628470059231     -0.25888689848087
  H   1.81882058951098     -2.44691479020880      0.10340963395582
  H   2.75550200194661     -2.53637088903265      1.58261082958384
  H   3.06891876788993     -4.65193031739391      0.55952123615751
  H   3.58977319374117     -3.18835933776795     -2.09259461028741
  H   8.05964928367504     -4.60208216847122      0.28757443421673
  H   5.76286225475896     -5.66223427767184      0.24903221436774
  H   6.78613245171866      0.03743516726404     -0.12817720331309
