26
Coordinates from ORCA-job 5614optt
  Br  0.83865767760047     -0.02599160473720     -0.29506895965593
  C   2.74445797120347      0.14682915365668     -0.03615131653331
  C   3.52907758525982     -1.00894022120627      0.11050308199799
  C   3.22330489536899     -2.31311010709225      0.52054054113162
  C   4.41387904290649     -3.07510705525811      0.48739096639470
  C   5.44334570164738     -2.25759053722768      0.03322382727486
  O   6.76441931041389     -2.64937945598499     -0.14426719674239
  C   7.62109965425184     -2.15079981190737      0.85038905559603
  C   7.27301775962239     -2.66055210110971      2.26289601446760
  N   8.58275853809522     -2.71219668017346      2.89356475560854
  C   9.62727971451459     -2.76919798762745      2.02609223955794
  O   10.79394307652797     -2.90949650465184      2.32681092274601
  C   9.04582482750278     -2.64141981595591      0.62831557481823
  C   4.93935673004189     -0.96721911895239     -0.21643633186500
  C   5.53326345453932      0.11888494219546     -0.90182144009350
  N   5.00143362603143      1.27143314550696     -1.16167786158675
  S   3.46238342477262      1.62706382934872     -0.57424597930757
  H   2.24310618508563     -2.66416492747322      0.80519420271834
  H   4.51836248437943     -4.11851877681865      0.75003942040216
  H   7.58879152202205     -1.05588788701564      0.85734362742494
  H   6.80972606845249     -3.64848453672888      2.18541306793756
  H   6.59019901177376     -1.99571962120895      2.78856341279857
  H   8.73128391623172     -2.87818508727257      3.87522564745782
  H   9.01810167747158     -3.63695832025977      0.17744733926762
  H   9.66053494528490     -1.99705140989203      0.00519210257253
  H   6.54039119899767     -0.01923950215342     -1.29947671438862
