23
Coordinates from ORCA-job 5617optt
  Br  1.27278963863071     -0.60133433701128     -0.33564395813239
  C   3.12150371539358     -0.11596475583263     -0.28286942777008
  C   3.57482045818169      1.14801654693243     -0.33871432966613
  C   2.69524660863827      2.34967548677700     -0.51465971657266
  C   2.81023954165162      3.39319679435124      0.60142656148003
  C   3.95336002841424      4.36684177858847      0.40790789615036
  O   3.77964986338435      5.56381760329525      0.62796476702607
  C   5.22661369059625      3.84803617700255     -0.01933168360816
  C   5.64769289098219      2.52402594446600     -0.26030623772431
  O   6.99805896234695      2.53952259662587     -0.47608579986192
  C   7.42335388951532      3.82578531824843     -0.39285712942369
  C   6.40491397227660      4.66061101047760     -0.12509904037686
  C   5.02169887492441      1.25639030832829     -0.29590755303753
  N   5.82501451514859      0.16774189353271     -0.32845815741444
  C   5.33250708667668     -1.05790558704960     -0.30236104125476
  O   5.89553170387117     -2.12229483450181     -0.32994880757234
  O   3.87715330195149     -1.20075128076992     -0.20034809539132
  H   1.66158769137000      2.01990847421972     -0.58648944441823
  H   2.94148097092545      2.82894410067849     -1.46830699762060
  H   2.94385968337152      2.88794833985375      1.56361962653204
  H   1.90192895320542      3.99236244897534      0.66508867390425
  H   8.47872902300779      3.97680957851838     -0.54212214879813
  H   6.43926493553563      5.72761639429366      0.01350204355080
