22
Coordinates from ORCA-job 5622optt
  Br  1.11302164015808     -0.14960792254385      0.27765329010017
  C   3.01025449017793      0.01176389464711      0.11415975104266
  C   3.75953415573436     -1.15335958058864     -0.13810514141950
  C   3.29536936508917     -2.58726426684714     -0.16901366841629
  C   4.59983560547735     -3.40661918596653      0.07516188050874
  C   4.75992541029799     -3.61163095437131      1.55406610789275
  O   4.75430017290221     -4.68573139340827      2.09671942506071
  C   5.71778730948154     -2.48709407864084     -0.46838866279094
  N   7.02462567507984     -2.60891484925502      0.17763128968397
  C   7.68572091534744     -1.54168143337548      0.31489265991952
  O   7.32407957184699     -0.27101227229197      0.01825149638413
  C   5.95686477892903     -0.05216999960886     -0.15652991676617
  S   5.36962637352184      1.55762707957615      0.14377671091781
  C   3.50585313616361      1.31388447499058      0.26642276751617
  O   2.92209140560294      2.36054954527005      0.49189723554424
  C   5.13779559384557     -1.12214684278793     -0.29146106376609
  H   2.84836238760532     -2.87003552903280     -1.12976962176104
  H   2.53660998762100     -2.79060635200038      0.59169427069230
  H   4.58464863431031     -4.38675673942832     -0.40046111320980
  H   4.85057807097969     -2.67943650977789      2.14568102724333
  H   5.86636920434578     -2.72515584325308     -1.52920016112866
  H   8.69574611548184     -1.55860124130552      0.71292143675198
