26
Coordinates from ORCA-job 5623optt
  Br  1.98041276275148     -0.63759219645186      0.89241541266653
  C   2.74882164682372      0.90255987072391      0.08126915675251
  C   2.06218033937752      1.62598219792814     -0.80732485396375
  C   0.63648245091695      1.56123460504453     -1.30717820618845
  C   -0.58147754524818      1.24962802760180     -0.40022256383923
  C   -0.82107124234389      1.91716208690974      0.96017714792662
  O   -1.03318100935028      3.33644748021392      0.96193831062705
  C   0.12087640409119      3.98873831544090      0.65051588838718
  N   0.16729204560532      4.82155188318033     -0.37337817328503
  N   1.49405288427446      5.00116114673709     -0.56986333398013
  C   2.25719375490564      4.23494356297312      0.24212138175387
  C   1.39044362944984      3.68044316344450      1.15990095017645
  C   3.41438817422378      3.45159597990822     -0.27432073375513
  O   2.77035288062281      2.67165798248869     -1.34829683397164
  N   4.16183752682138      2.76435544924306      0.58288270409265
  C   4.07208898080891      1.40922562037923      0.60715614822830
  N   4.97246083063896      0.64906082289322      1.14277974114829
  H   0.59216118540701      0.83084819923348     -2.12310586286193
  H   0.47619962382508      2.53630172863383     -1.76923217331616
  H   -0.59922069354549      0.17941167727907     -0.18192357317605
  H   -1.45892615631557      1.45300826808521     -1.02163680912131
  H   -0.01645487449573      1.66078905860276      1.65118996445309
  H   -1.74782909956424      1.50601535990360      1.36280700405451
  H   1.80126462185477      5.37763245823089     -1.45053441264934
  H   1.67579202518529      2.95609580271576      1.90166376960597
  H   4.65085885327924     -0.31525855134317      1.12819995023514
