27
Coordinates from ORCA-job 5627optt
  Br  1.12468552789813      0.46649888364881     -0.44116280675093
  C   2.99945146622161      0.06248958988894     -0.37561558325705
  C   3.44693889238887     -1.22189809435894     -0.10763474662991
  C   2.52555756994160     -2.38441573444315      0.14928508871507
  C   3.20762290619732     -3.71086988072956     -0.14894673693448
  C   2.34575351245716     -4.90618803192044      0.15374738346006
  O   1.22530316917620     -4.85447849818508      0.58911174584266
  C   4.52585344930200     -3.81359697777042      0.62143592222956
  O   5.21258181057802     -5.03604508439782      0.28922103989576
  C   6.26458797393997     -4.79412208591780     -0.54306240804097
  N   7.03609160979191     -5.69866771067777     -0.96275995579815
  C   6.33129444398375     -3.32609862392946     -0.85690252360532
  C   5.49027557045447     -2.68427085636706      0.25975747654617
  C   4.82715821619760     -1.39239196594269     -0.08419767208407
  N   5.70315721012342     -0.33511709735054     -0.31999390707903
  C   5.11611748735947      0.82587505558442     -0.56516014357341
  N   3.82770949867711      1.12690748416088     -0.61189577951236
  H   1.62445362691302     -2.29808003313215     -0.45755400913482
  H   2.18002896471405     -2.38001680454674      1.18822085709918
  H   3.46003080594758     -3.77095437651222     -1.21700220619359
  H   2.81961032110198     -5.88637080639474     -0.04368879599904
  H   4.31642134606529     -3.84883292085283      1.69265716194336
  H   6.74435526384107     -6.60338254947270     -0.59313034700197
  H   5.87426991827364     -3.14616193367075     -1.83321212513514
  H   7.35732313554800     -2.97303151381039     -0.89703458554644
  H   6.16214620424002     -2.52511491805065      1.11438123533965
  H   5.79022009866668      1.66133548515089     -0.75386357879480
