25
Coordinates from ORCA-job 5630optt
  Br  2.84339078664326      7.10318258270066      0.53659163494259
  C   2.72881899909744      5.90005975066887      2.08534776682216
  C   1.82401546770048      4.81388016626816      2.06148635295410
  C   1.14413011385654      4.46539332805127      3.22591001977949
  C   0.20955044895340      3.26873700046759      3.27188689281276
  C   0.01381574844895      2.54906475619088      1.97227635303986
  O   -1.03174670927842      2.03211617094570      1.65355220888110
  C   1.23239792447092      2.55313462124350      1.10091934516949
  C   1.64251255573473      4.00285666056683      0.78094447086941
  C   0.64238294535032      4.59571647353204     -0.26068975451761
  N   1.33188899085690      4.58216571955318     -1.55662452794890
  C   2.53981392388030      4.28175901738427     -1.31320462065617
  N   2.87828043078803      3.90867438466257     -0.02450332413605
  N   1.14011613526187      5.08676082164283      4.42154318277832
  C   1.95921414964256      6.06718890399594      4.77520858197962
  O   2.01249009662580      6.65400245158608      5.83552649818345
  S   3.23736168134744      6.63924539706191      3.55274754032505
  H   -0.75388861653675      3.58289791227525      3.67222840980504
  H   0.62187056920273      2.54993621106956      3.99149626199573
  H   1.04412642390316      2.01099805922562      0.17411654509203
  H   2.05783749362346      2.08235346763476      1.64178565628631
  H   0.36116258580350      5.62329076872812     -0.02220901406464
  H   -0.26878614446789      3.99547960255394     -0.30411769076938
  H   3.31042767513033      4.27101861774565     -2.07734672099894
  H   3.70481632396086      4.33108715424464      0.37912793137511
