28
Coordinates from ORCA-job 5635optt
  Br  0.91538324599473     -0.37232565095064     -1.22176370447085
  C   2.95012717700598     -0.14914940254535      0.23999834977558
  C   3.61941749525719     -1.32045146055396      0.50201125386966
  C   2.87883351977312     -2.61123309975735      0.69500460516253
  C   3.12782951884402     -3.59904661430259     -0.44194683470590
  C   4.48817281093126     -4.27935368483151     -0.33463303848763
  O   5.58872779877736     -3.41480550169411     -0.48355307623039
  C   5.83031536557930     -2.51478142869332      0.58127859355621
  C   5.02264456387161     -1.23684204716085      0.45777164163028
  N   5.72442217031959     -0.13673594010486      0.27861685285071
  C   5.06687858432486      1.04576912594297      0.08404307501868
  O   5.59745194895765      2.13456232125429     -0.05351885969388
  N   3.65886111554856      0.96011882253137      0.03138762519549
  O   2.18523022114918     -4.66351693042534     -0.41455861339314
  C   0.96381130512245     -4.32122804189450     -1.03233173648351
  C   0.00644875794715     -5.41140107006524     -0.84708828294394
  C   -0.79063683564535     -6.29428225874988     -0.70717488104872
  H   1.81688635258401     -2.37160080516237      0.73624545591360
  H   3.14370842419914     -3.10036634773364      1.63963385599862
  H   3.05943297029996     -3.06369115979216     -1.39749268382644
  H   4.57484550707586     -5.02468586842379     -1.12533185314876
  H   4.53853008393542     -4.79877197320218      0.63357949682085
  H   6.88444774367960     -2.24861869980986      0.53965569769530
  H   5.61868680995481     -3.00683985542495      1.54105063531286
  H   3.18384287511479      1.82452001943204     -0.19241399980602
  H   1.11613303602365     -4.14944455318127     -2.10478054704625
  H   0.54945431506496     -3.39103913819369     -0.62756717878948
  H   -1.49788688169101     -7.07675875650716     -0.57612184872546
