24
Coordinates from ORCA-job 5636optt
  Br  1.01570607892537     -0.10532865875516      0.41112650691672
  C   2.88149777014034     -0.29670042568386      0.21314255230647
  C   3.54469539136783     -1.46719190045267      0.23892407592666
  C   2.85266260457050     -2.78807502077608      0.47488126851839
  C   3.25968585689068     -3.90034670464286     -0.51233116702059
  C   4.67405530750715     -4.41890997477381     -0.35466828008317
  O   5.64547096926960     -3.46606866496698     -0.75067344977361
  C   5.92277147525674     -2.47855982453587      0.21271318998478
  C   4.98282929292352     -1.29321196372260      0.15888299769022
  N   5.57508989948838     -0.13891722164472      0.05635080727622
  C   4.85133240269570      1.01666617487034      0.00772797921727
  O   5.27844507847963      2.12678964045039     -0.10223457208256
  O   3.45414854979622      0.89355439409313      0.07790426081495
  C   3.03195833326940     -3.19960295991686      1.93788248642309
  O   4.11093244378103     -2.94058567469703      2.56502255394421
  C   1.95556292895747     -3.94071085193746      2.47919880844435
  N   1.04437701669993     -4.55118346891426      2.87652497169249
  H   1.78915811933370     -2.62596283555230      0.30014970815231
  H   3.12125959033380     -3.55822932749694     -1.54405034119553
  H   2.57083147546814     -4.73283492572382     -0.34321624406862
  H   4.82688079768728     -5.28180285109628     -1.00543827231287
  H   4.84869457542846     -4.72332495807065      0.68376967679388
  H   6.92095100044121     -2.09666853749025      0.00943235333870
  H   5.86200304128784     -2.88579345856337      1.22797812909624
