26
Coordinates from ORCA-job 5646optt
  Br  1.63892070975139      0.90505397177316     -1.87353111698378
  C   3.21886893412760      0.50676812714701     -0.91351346361179
  C   3.49775022629679     -0.76319808683289     -0.52627451212566
  C   2.93448057400896     -2.16351163068404     -0.68972911461665
  C   1.50012030733824     -2.34865441035263     -0.17351062202861
  C   1.44632357488473     -2.11962503547601      1.32961428551472
  O   2.10821376443266     -1.13556564158574      1.79011837574610
  C   0.69100567212080     -3.02198136955402      2.07552700603498
  C   0.12806298636058     -3.92928872890366      2.70549299839299
  C   3.96669533583773     -3.08473273660237      0.06828459555034
  C   5.07746321314818     -2.14752584739015      0.46512205149769
  C   6.30861407314553     -1.93427892150428      1.04183513006680
  N   6.65214541991847     -0.59977452267477      1.02624660580319
  C   5.63393173733832      0.01924583559216      0.44368793136270
  C   5.30194743544923      1.35025214080028      0.07210477240089
  C   4.12470759473163      1.56502380574773     -0.59034145456228
  N   4.68766229339200     -0.90247774821739      0.10150679077763
  H   2.95080458142878     -2.38884495576396     -1.76100662883421
  H   1.15983707758095     -3.35604975725691     -0.42519276552983
  H   0.84768141189728     -1.64113274065405     -0.69545490439871
  H   -0.79227398425635     -4.27371105028625      3.13521350083331
  H   4.31171594715771     -3.89884318347945     -0.56918607873729
  H   3.47894558955742     -3.51387958351018      0.94591413309116
  H   6.97515269947497     -2.66402720933060      1.47221854781674
  H   5.97229055107848      2.16449460485896      0.30571467332303
  H   3.85293227379772      2.56926467414014     -0.88686073678344
