29
Coordinates from ORCA-job 5652optt
  Br  2.31604722188933      0.88940162268200     -3.27999799932294
  C   3.54813457500372      0.64652093090498     -1.83251500865784
  C   3.57190778359470      1.42343986143079     -0.72885161076027
  C   2.63270946870682      2.56924107876082     -0.50103649211024
  C   1.35834280152884      2.09514107635908      0.24472998402404
  C   1.60802454684954      1.63189971495607      1.67551189488908
  O   2.07122201372047      0.30313270792651      1.68001002861202
  C   2.90348457713118     -0.01294819165740      2.77757280116303
  C   3.82700289630187     -1.18328217823429      2.45834800481056
  C   5.10284834540088     -0.79569898816130      1.68725513998351
  C   4.78005459624212     -0.20881526522048      0.34792822419480
  N   4.34227397376457      1.06910991139805      0.33635394128871
  C   4.74506474413888     -1.07837743675871     -0.76310828349032
  O   5.07073934392496     -2.25121688519046     -0.85479797230379
  O   4.30616910033254     -0.45888924004989     -1.98046570015381
  C   0.34584633414869      3.20061515731028      0.16239186424980
  O   -0.18066575369091      3.76047788297062      1.08903488230412
  H   2.34630844812340      3.04175964827194     -1.44248201703882
  H   3.14278247485332      3.31199568861661      0.11759169697789
  H   0.94344877846124      1.25864464551322     -0.33373501896237
  H   0.68393874105416      1.71599953386355      2.26074269880967
  H   2.35286305123461      2.29438938917055      2.13111449651291
  H   2.27324531871756     -0.25325496843131      3.64649688211721
  H   3.51443487638900      0.86068793547394      3.03445681190487
  H   3.26764413258290     -1.92809327383769      1.88573513884347
  H   4.11077011523947     -1.65109038974921      3.40760192706019
  H   5.72642434861581     -1.68239223807603      1.56478693677516
  H   5.65740791086871     -0.05645672436329      2.27497532422675
  H   0.10652523487153      3.51005899412106     -0.87664857594743
