26
Coordinates from ORCA-job 5660optt
  Br  0.83315986690923     -0.19353206759894     -1.47244721465402
  C   2.82293423664635     -0.24029379120378      0.01185818237414
  C   3.33661520802489      1.01889373757892      0.20426011013811
  C   2.68697000499460      2.36766369551664      0.29627497966571
  C   3.91553569347338      3.30111671260836      0.30950933524951
  C   3.83320002729525      4.35001957618895      1.38547898439971
  O   4.92456812999780      5.23871992736422      1.26618561969692
  C   4.95079568013522      6.22037506927051      2.26271102115443
  C   3.86177580052785      7.20374505264616      2.13709660775996
  C   2.96866802314394      7.99331171108234      2.02053791683489
  O   5.07684093032248      2.47918775171511      0.53339692577609
  C   4.70937614404597      1.18301564241627      0.34878358239491
  N   5.62294142426524      0.23493192509135      0.32412878160563
  C   5.13019213171986     -0.98987323510523      0.12808386747989
  C   3.77416957362105     -1.27659900974996     -0.03729738709659
  C   3.40786611141127     -2.65117497383859     -0.22484696450425
  N   3.18144521767370     -3.77025292825668     -0.35882543170651
  H   2.09688317906370      2.46532577393152      1.21298677400591
  H   2.02215978254971      2.55249565944836     -0.54672551847959
  H   4.05291814989307      3.79007846670835     -0.65858883783159
  H   3.85288383085795      3.85948493156715      2.36809122225325
  H   2.88646940228901      4.89477781074653      1.28451807720073
  H   5.90887205984362      6.73353636081884      2.17491334827100
  H   4.90179100916077      5.76439404685722      3.25989851483350
  H   2.17635404057916      8.69443110077991      1.91209827031507
  H   5.85161434155478     -1.80077894658359      0.10091923286318
