28
Coordinates from ORCA-job 5664optt
  Br  1.85176607351532     -0.04533341925232     -3.00332705926427
  C   2.83828676610662      0.23514909623575     -1.33191219148793
  C   3.50365856236513      1.35898254891443     -1.06832308959514
  C   3.37225443150304      2.67691814915256     -1.76236313463215
  C   2.81488254965040      3.75372935637580     -0.80523728494167
  C   1.32784499721771      3.82516547680062     -0.50701062856038
  O   0.82645238196085      4.89880524455920     -0.25735514385461
  C   0.41950492999800      2.59701899242553     -0.49120376353278
  C   0.00600139939407      2.17696387292865      0.93701449824088
  C   1.20475464212090      1.58133823033548      1.65765210021973
  O   1.92570535282272      2.27822829285404      2.33608512182389
  N   1.44574666569606      0.24683862655337      1.39495222839120
  C   2.74826086091379     -0.23100070329076      0.97343001386141
  N   2.63068226579744     -0.75149512923950     -0.37302801626621
  C   3.88565500708250      0.56118274285095      1.23227357757382
  C   4.37358236955959      1.36081756355763      0.17688518699772
  O   5.32729301443464      2.16755402546912      0.20846569890416
  H   2.75712862060642      2.59004721816552     -2.65936432109175
  H   4.36661319206970      3.01394090800786     -2.05844708304230
  H   3.08212270829759      4.75022514765876     -1.15918379029954
  H   3.30867883285563      3.63173374786745      0.16618192416802
  H   0.86281885627305      1.75171463480941     -1.01162733161923
  H   -0.48097627248274      2.89873478987965     -1.02954036951419
  H   -0.33852183112215      3.05024934134694      1.48980146401247
  H   -0.80850707619021      1.45266074466596      0.86678264966095
  H   0.71429011913530     -0.21358260062672      0.87166142908132
  H   3.15215368157916     -1.60651635250638     -0.52527238311475
  H   4.17686689883930      0.82592945350084      2.23900969788131
