26
Coordinates from ORCA-job 5665optt
  Br  1.74661991085636      1.41888514465140      2.47088280767144
  C   2.50193967160690      0.98958040582887      0.75782134438278
  C   3.65407668713972      1.65224750102621      0.29854189484633
  C   3.87749033165250      3.09749238220390      0.64651054204911
  C   2.90161257871608      3.99761510393861     -0.15315532290463
  C   1.51508781439010      4.08755587366797      0.46261019815707
  O   1.35860873478001      4.71291630251065      1.48415290685365
  C   0.28721429370044      3.56051604573620     -0.27502409607004
  C   0.32069886231327      2.17560463613491     -0.93668153420429
  C   -0.28788166607132      1.07919289107374     -0.06341951206910
  O   -1.41382203354288      1.15376514103755      0.33807166908713
  O   0.42153376600297     -0.05156394198710      0.16800286391618
  C   1.80676883711548      0.02569966507084     -0.00676147151909
  C   2.36854259540992     -0.66767201529791     -1.01810133435190
  S   4.07865543240223     -0.56832664449278     -1.32653979501187
  C   4.46215390882566      1.14352609174110     -0.74448893635792
  O   5.40430834790462      1.70041824882118     -1.30402941500265
  H   4.89654524458986      3.36712057203423      0.37402849228069
  H   3.73561415104480      3.28900816139029      1.71145879852975
  H   2.86600330768732      3.64991980050348     -1.18688695306771
  H   3.27723082041215      5.02390843430678     -0.14663846489752
  H   -0.55801019652263      3.62829469163502      0.40953824531057
  H   0.12320827524665      4.30587615446909     -1.06251066189800
  H   1.31199710764119      1.92069610524154     -1.30296638673086
  H   -0.35128092086816      2.20095017546375     -1.79801888724176
  H   1.75608413756670     -1.22122692670957     -1.71739699175736
