22
Coordinates from ORCA-job 5674opt
  Br  3.06212830456878     -0.80778212995852      2.70870617469122
  C   3.88790893339997      0.17066810031205      1.06832870794649
  C   3.00100927613808      1.07741948178832      0.48623921697029
  C   1.67781795880789      1.43692865247966      0.93818818888009
  C   0.80475008695250      2.03581354999161      0.11468329055073
  C   -0.12331766951893      3.06419558162411      0.60674304064306
  O   -1.13935721978299      2.90161264148471      1.25137063228310
  C   0.38843031572721      4.43502445915853      0.34731913039486
  C   1.67131531633252      4.82123593289886      0.19676535288550
  N   2.88079942050451      4.13327976833629      0.06492802466942
  C   3.27381169094062      3.19641658591420     -0.94016866546712
  C   3.53833934062030      3.71796366809669     -2.22307161313058
  N   3.75178944042705      4.17690455633372     -3.26434664447185
  C   3.51644363534208      1.83540425098955     -0.65166299355132
  N   4.22975151649887      1.15470866416136     -1.55067316512782
  N   4.88305314164096      0.54995769006984     -2.24603118392102
  O   5.00724998189075     -0.15453655169443      0.80399312829232
  H   1.45401180656483      1.35305520023377      1.99567971774200
  H   1.06731486337090      2.15728801466311     -0.92891118442143
  H   -0.33028541435872      5.22943480497657      0.51348161951548
  H   1.83747066326430      5.89244072666788      0.28909584541790
  H   3.65056461066827      4.75156635147187      0.27634337920868
