28
Coordinates from ORCA-job 5676optt
  Br  3.96367974452444     -1.05912055086813     -2.17397518335848
  C   2.81617708577638      0.50914853335222     -1.51216560625719
  C   3.63412420470871      1.58414647567486     -0.99499467929775
  C   3.20745254716828      3.03594728223787     -1.10783292077217
  C   1.82548765701754      3.13949240964988     -0.47292851547477
  C   1.11412070674362      4.43963157697158     -0.23597490612212
  O   1.61567565607723      5.52692493659504     -0.39268070564631
  C   -0.35638712644669      4.33858748541864      0.20384367059343
  C   -0.84455826570324      3.11525429827599      1.01132466012028
  N   -0.76319844668054      1.91835817510919      0.19969841189786
  C   0.12251765269371      1.07618960475000      0.52951450822356
  N   0.66093189513279      0.17652221807070     -0.37055665720649
  C   2.07248818068197      0.02409049216334     -0.31635505470458
  N   2.58059158668551     -0.35846946668502      0.80288885354869
  C   3.94153349134534     -0.21811068481103      1.01248653731272
  N   4.65360106836773     -0.95684887279605      1.76592106790703
  S   4.75718732444853      1.21566234701214      0.29378203083622
  H   3.15273006654381      3.33022235891645     -2.15848747989764
  H   3.92405895888495      3.68805793027493     -0.60671336353925
  H   1.87821779175727      2.67010805175530      0.51727371767068
  H   1.15353405238693      2.51877881045283     -1.06255522365648
  H   -0.58217961943966      5.25894055058474      0.74520777544421
  H   -0.93301927385140      4.36157950783250     -0.72725084493066
  H   -1.88394011997696      3.31286646064530      1.28575885712287
  H   -0.26734576680852      3.02829983141204      1.94368438168354
  H   0.65328709114191      1.08196501865268      1.48599104138598
  H   0.36061420243108      0.35788827272134     -1.32137121525278
  H   4.05461765438926     -1.69211305336938      2.14246684236961
