24
Coordinates from ORCA-job 5679optt
  Br  3.31730235745173     -0.46126845788724     -2.30983751123556
  C   3.02376741958283      0.46765052423543     -0.69706533732764
  C   2.76215804383998      1.79647670285569     -0.65126398169274
  C   2.30719530087644      2.72697526667219     -1.71334517342971
  C   1.13472767635935      2.52054347585177     -2.31148612659444
  C   0.16159626549787      3.68320499954529     -2.42575346524776
  O   -0.14111179258880      4.22053489323712     -3.48415838961175
  C   -0.30191436347137      4.12016137068136     -1.11888344851995
  C   0.02102794084590      3.41013272949144      0.01821039475626
  N   -0.02374890533365      3.81937370437447      1.30207778030856
  C   0.53881297396999      3.20482814425840      2.41886116853035
  N   1.27051420817960      2.08595163036773      2.47720667812074
  C   2.08707718188401      1.70590506266759      1.52110503686357
  O   2.47105453831608      0.38219734184419      1.61875769661497
  C   3.04871697129412     -0.27234296026179      0.55097470554772
  N   3.49529441332619     -1.45032395722573      0.70234030566800
  N   2.52464353866174      2.45447489060016      0.52323146637146
  H   2.63620537705827      3.74780164261363     -1.55051679625557
  H   0.73014599895125      1.51325761494252     -2.37724096142753
  H   -0.79804616478853      5.08430964286542     -1.07185841168690
  H   0.37740628627512      2.40309517897463     -0.08255248619978
  H   -0.40801550540385      4.73627903174906      1.47847171537804
  H   0.14038629126403      3.59038432756343      3.34842309459380
  H   3.34580394795169     -1.74160280001678      1.66630204647582
