22
Coordinates from ORCA-job 5681optt
  Br  1.05245745331650      0.07567776424623      0.02095119764047
  C   2.94133707433786      0.06877018468676      0.18798437974416
  C   3.68154900385419     -1.12146568558083      0.06456179371614
  C   3.09580863918763     -2.50051222425387      0.01146757541618
  C   2.45936333235158     -2.94616230744338      1.33559913966743
  C   3.40872779709410     -3.09521569504037      2.49443015758640
  O   4.59019280907278     -2.87754928262455      2.47218387148317
  C   2.77054366906480     -3.56685141291955      3.73795318581380
  C   2.23395156654957     -3.96854426181001      4.73156050608451
  N   4.04915099261345     -3.52262605107680     -0.40867449391147
  C   5.27208609143954     -3.23041172805413     -0.43058127538898
  O   5.87557533872845     -2.06038083248273     -0.17184269674259
  C   5.05920972767538     -0.95659948876339      0.02026102326851
  N   5.74294782500023      0.14790645532531      0.10814724663111
  O   4.96954975159840      1.29599223005983      0.33747257777052
  C   3.57794800121815      1.32686415829660      0.30373053844289
  O   3.07291042115603      2.42851657144562      0.39528968804559
  H   2.27301752392534     -2.50669282878401     -0.71167175776653
  H   1.96402983780745     -3.91416346628153      1.20356227306796
  H   1.68209099716669     -2.23601109127709      1.63511370024933
  H   1.76909216263730     -4.31945553433349      5.62159129261402
  H   6.01345998420450     -3.98108547333461     -0.68808992343264
