28
Coordinates from ORCA-job 5683optt
  Br  2.70374093742556      0.55166234058344     -3.53345743458277
  C   3.04018288451253      0.73187370007078     -1.63904240609602
  C   3.66078105823908      1.88969509436302     -1.15786860933340
  C   3.37893987682039      3.25469176574153     -1.72137421694606
  C   2.31906481700109      3.95954255067582     -0.83483240137502
  C   1.14246830868338      3.04245341543605     -0.50788289211632
  O   0.46969664936646      2.54627822636223     -1.38070013907720
  C   0.83104055567547      2.81074840370237      0.96386482587293
  C   -0.15095246465883      1.66831163069818      1.26652904837189
  N   0.37498067857267      0.34219771783960      0.91141002995849
  C   1.64513302492156      0.12570086440012      1.49722075833291
  O   1.81011456469134      0.33023113926615      2.69545700506600
  C   2.74328989796549     -0.06548619706863      0.56126913661391
  N   3.88400034747525      0.68379075228426      0.91462187354581
  C   4.17726671017543      1.84950690545619      0.18263716555898
  O   4.79097637805654      2.76977613623881      0.73240948421197
  C   2.55938097682267     -0.26722752840671     -0.83047776623109
  H   2.99695604563410      3.16645827209599     -2.73721219718240
  H   4.27143966396857      3.88352984640128     -1.73977293785804
  H   1.91722007205890      4.84024512868380     -1.34682295438602
  H   2.79639072868914      4.28368777263733      0.09045573380254
  H   1.77266273159232      2.66463292757871      1.50244138074653
  H   0.42999091976942      3.75990943606631      1.34325276263621
  H   -0.37873233900580      1.67394928722568      2.33125967869153
  H   -1.07610371009709      1.81455333986100      0.70968889113398
  H   0.44841573020296      0.29353116870915     -0.09810534922474
  H   3.98941225118980      0.83291787064948      1.91081972326414
  H   1.94124270425153     -1.06216196755196     -1.22578819339876
