23
Coordinates from ORCA-job 5685optt
  Br  1.10632187378986      0.25247062658412     -0.60628846384501
  C   3.01982186768939      0.12592156944821     -0.31090121419639
  C   3.55912102814503     -1.11837062132932     -0.09773580247677
  C   2.80658170653279     -2.37766294175695      0.18872641665687
  C   3.54454288711365     -3.62792571751481     -0.31114397262244
  C   4.94193760266786     -3.61871725395275      0.22926058190808
  O   5.44985540693822     -4.51860201616143      0.84227140755309
  C   5.72807274237031     -2.33238164418841     -0.06923026674929
  C   6.16552662816215     -2.42980183002435     -1.48374842764100
  N   6.46054019783478     -2.54792933343027     -2.58549209631730
  N   4.94790848193447     -1.13328509031288      0.17995616712551
  C   5.72402592088781      0.06073515456234      0.19337115749274
  O   6.93508338708929     -0.03950145100537      0.36304710705046
  C   4.97794823857256      1.26237193159969     -0.02211023372869
  N   3.64212980392537      1.27517594979309     -0.30506531279622
  C   5.67572216216945      2.49446313003667      0.02002659340814
  C   6.26907332721821      3.54337456931689      0.05545910864206
  H   1.82286743016714     -2.32565150777143     -0.26926998247112
  H   2.65444285397313     -2.48523624734916      1.27190525061775
  H   3.61136560284253     -3.59123547780774     -1.40318174679409
  H   3.04999563469631     -4.54915694637791     -0.00793492397845
  H   6.61987611322513     -2.30551473869328      0.55257915921742
  H   6.79823910205450      4.46345988633508      0.08249949394464
