25
Coordinates from ORCA-job 5688optt
  Br  1.06578775710467      0.06861278757321      0.24265656431389
  C   2.95132096035869     -0.05654261952525      0.09837010981638
  C   3.61186414399649     -1.28685611048118      0.06172825842348
  C   2.80868991846413     -2.56527683361230      0.07758708454017
  C   3.59728683304092     -3.76064367112600     -0.45749249089072
  C   4.90437407352265     -3.85648109622282      0.26795202307458
  O   5.25497066691918     -4.82833284943630      0.89501345097538
  C   5.78483256168788     -2.62939501667211      0.12103885758005
  C   6.63636357708178     -2.91695006562265     -1.12427288250103
  O   6.23667965383903     -2.75940617509764     -2.24516132405893
  C   5.00566758719647     -1.33825613390666      0.02064258072349
  C   5.73817516878765     -0.13318141172056     -0.04391597433155
  N   5.01362313876751      1.04957141023240     -0.02895633731091
  C   3.64348481757637      1.19785904889484      0.05800747171611
  O   3.15237138677176      2.32487971337712      0.08421067794068
  C   7.14578787396420     -0.01794888788832     -0.12759048077025
  O   7.97265308182679     -0.95468496720139     -0.21400792087954
  H   1.90834632826281     -2.42939278558087     -0.52003564026334
  H   2.46545396988161     -2.76607054600931      1.09788925266952
  H   3.82782654347741     -3.58492172094510     -1.51331725147408
  H   3.04894787713479     -4.69499995512807     -0.34726952557686
  H   6.47325759061603     -2.60946815324472      0.96610161053119
  H   7.61846166049556     -3.36675089563757     -0.91630065269587
  H   5.51571232221331      1.92404839693284     -0.08293961825890
  H   7.51306050701220      1.02658853804843     -0.12693784329295
