22
Coordinates from ORCA-job 5691optt
  Br  2.18469040713189      1.18143167761053      1.48206202943258
  C   3.75246788426167      0.71886224967068      0.51813760007243
  C   4.64313435011531      1.59398473162198      0.00132945718151
  C   5.85207493492533      1.07331713229573     -0.64008396159811
  C   6.73619664258220      1.94675360750248     -1.36980079719252
  C   7.99593656877924      2.36773920934643     -0.64297474825231
  O   9.11238342178543      1.95311916786577     -0.67177168661126
  C   7.35480404172735      3.44961779317236      0.20718212341521
  C   6.56447163418378      3.08031624279004      1.21825012034168
  O   5.27951212948084      3.61606547554774      1.27633335748495
  C   4.41558501483194      3.05089908763144      0.35237353910093
  O   3.49042665269745      3.70366310221188     -0.02215326943443
  C   6.24018751972029     -0.27691067680955     -0.43688156289569
  O   7.30713852778601     -0.79403915640717     -0.78378590427646
  C   5.20393637556918     -1.19975170345449      0.17206093519562
  N   5.37564760856333     -2.44989638426192      0.33356063275889
  N   3.98755638369654     -0.63098793916686      0.50327573357949
  H   6.26520397635365      2.76902962156795     -1.90348575828882
  H   7.00609694745963      4.29776790798373     -0.37557464266893
  H   6.73484470595598      2.22619829985127      1.86093457936177
  H   6.31655391531333     -2.65284831916512     -0.00768783231049
  H   3.28815035707948     -1.26133112740493      0.86370005560396
