30
Coordinates from ORCA-job 5695optt
  Br  1.68607927573819      1.57218903053340      2.93550700493052
  C   0.50061895850413      2.04525466839970      1.40416176019909
  C   1.07467143053876      2.32425622722083      0.15797346686263
  C   2.29384218506069      3.19859106190777      0.06440777128922
  C   1.90357651736501      4.69093091352164     -0.06609399791093
  C   0.79881797596427      5.12949348708438      0.89225561899572
  O   -0.45324570978504      4.82720047689215      0.30735256377572
  C   -1.55969652806032      4.97720136355686      1.14305593295237
  C   -2.79483824456666      4.31666249379171      0.52108212813365
  O   -2.88431903598784      2.88746678886142      0.70323833554247
  C   -1.69202145069789      2.18821529038049      0.58597312878729
  N   -1.15500127752386      2.11439932034340     -0.69365502947115
  C   0.19206184393680      2.31130327288308     -0.98538711225961
  N   0.48304908353784      2.51011631233615     -2.23594735470775
  C   -0.85067024506239      1.99328831356482      1.67475614320881
  C   -2.94288937734326      4.67603460135915     -0.89554171832983
  C   -3.08609741543146      4.95241363498912     -2.05269829883942
  H   2.93731824388767      2.93549699091703     -0.78218687984956
  H   2.89838456429436      3.06644254544177      0.96342817713310
  H   1.53861224505242      4.88441672209353     -1.07824687605820
  H   2.78518252468840      5.32043862216173      0.09367062063594
  H   0.85382479559931      6.21235693144165      1.07870483419537
  H   0.89144115566659      4.60942884395167      1.85502869986941
  H   -1.78897586209153      6.04344948800526      1.29537251283532
  H   -1.38299255253366      4.51333096008306      2.12110398425269
  H   -3.66562270896590      4.70253885159801      1.05743920551404
  H   -1.77373370826332      2.22667456574721     -1.48243308398990
  H   1.48901565322230      2.59883304857336     -2.33682062011548
  H   -1.24704001321828      1.88890334262435      2.67713842241190
  H   -3.17035232352532      5.17867182973519     -3.08763933999341
