30
Coordinates from ORCA-job 5699optt
  Br  1.61825163283893     -0.55666461680980     -2.39934915316349
  C   3.40750319839580     -1.04907815379422     -0.59888801307538
  C   3.24153543670657     -1.93508533283020      0.41800633292953
  C   1.87740599703518     -2.41006913827773      0.84009650599710
  C   1.40767948687583     -3.58566152358259     -0.03725456473513
  C   1.98008793051293     -4.96323142868390      0.29009888894132
  O   3.38974378695001     -5.12404866478253      0.25077127215199
  C   3.97876595947988     -5.01152876732465     -1.02151707231022
  C   5.43640878925086     -5.48836103442211     -0.89252160378704
  O   5.67204358696962     -6.65748905217785     -1.07779794204659
  C   6.62007153577170     -4.53908614398440     -0.67380709333738
  O   6.52135420384213     -3.56732370762339      0.34976911169071
  C   5.55149368702579     -2.61896984695363      0.10268657184266
  C   4.40021648903799     -2.65688369803168      0.81296033470898
  C   5.73725579124781     -1.69319914129015     -0.99456600579614
  N   6.82192245394154     -1.64308503332178     -1.69777348889198
  N   4.61089981630097     -0.89923711111283     -1.19800832813661
  H   1.16517522796601     -1.59385896190623      0.71629451340936
  H   1.87560647291427     -2.70824780765360      1.89475592851398
  H   1.58157117033289     -3.31794918755383     -1.08278566723127
  H   0.32293663041380     -3.70089387253141      0.06595658563718
  H   1.52574815111955     -5.70369648861634     -0.38308736419116
  H   1.71158074923095     -5.23405544828787      1.31429884431013
  H   3.91624257931991     -3.99025417025232     -1.41276549833777
  H   3.49368912217587     -5.69918868115695     -1.72478906209557
  H   6.80996667691633     -4.04268892246059     -1.63524174310719
  H   7.47470406247128     -5.16554030728923     -0.42742198093104
  H   4.33506346989483     -3.38336394527320      1.61369233855885
  H   6.74363159276561     -0.94285888621071     -2.43238757935551
  H   4.63844431229506     -0.26140092580420     -1.98342506816227
