26
Coordinates from ORCA-job 5701optt
  Br  4.10614122076661     -0.81278448774918     -2.74816197908911
  C   3.66306569104493      0.07027353090850     -1.13070150672619
  C   2.55076593393336      0.81945273291559     -0.97676187253163
  C   1.52450179167972      1.15136231323066     -2.03292039131107
  C   0.51393246272355      2.14251061091146     -1.43639627386971
  C   1.24658934525580      3.35552536839664     -0.86574427505329
  O   1.98097811696207      3.99734837694115     -1.57569533511941
  C   0.92559598577900      3.81349885953368      0.56408611934810
  C   2.11667162103003      4.51284944844131      1.20011002378522
  O   2.26156314960536      5.71673475496510      1.06540697310400
  N   3.01544432061849      3.78666113327820      1.91814647036465
  C   3.05219146640267      2.36194788253283      2.27446104070788
  C   3.31891567039568      1.44344844987497      1.12689161579958
  N   2.34508039015874      1.43996680385612      0.20158572223297
  C   4.51146629960632      0.70141973317699      1.01759430847925
  O   5.45944539744855      0.62317674176497      1.77641631254621
  O   4.58589064271135     -0.11575434474283     -0.15372738498972
  H   1.01649460384882      0.25750982689856     -2.40314016078818
  H   2.02127502921438      1.61658477492343     -2.88717141809962
  H   -0.07706858255823      1.65905670889832     -0.66003590177182
  H   -0.15481579550644      2.50144833805480     -2.22349815999873
  H   0.58391645772768      2.96096979714017      1.14489386796269
  H   0.13702210403919      4.56713224046394      0.49757634983111
  H   3.81370266315644      4.34182022781159      2.18601787621495
  H   2.09021661010301      2.10006302324261      2.72750420666226
  H   3.82401740385286      2.24677715433037      3.03326377230957
