25
Coordinates from ORCA-job 5702optt
  Br  2.50484606207309      0.78355188987087      3.30681496975850
  C   3.63990758273787      0.79206634439145      1.73839136466782
  C   4.13471120561687      1.90406984734313      1.20239097639338
  C   3.40160327578508      3.23229043923220      1.29465579988846
  C   2.20984757847032      2.85310081987044      0.39410438781604
  C   1.01520116939797      3.57564388992650     -0.12432175798456
  O   0.66624849378991      4.71397351152900      0.03493713950168
  C   0.17917108295754      2.60399107181164     -1.01835821383688
  C   0.45525287707202      1.12078365231672     -0.76669185670185
  O   -0.22636116382357      0.44238331069275     -0.03995399081796
  O   1.53938458923442      0.69431225768555     -1.40970526595689
  C   2.27081938314274     -0.52955972191122     -0.96325281114833
  C   3.57446770074146     -0.20272609801966     -0.31768213602644
  O   3.65059619233183     -0.39816078095770      1.11204519304299
  N   4.38224335250050      0.69236282788071     -0.86264966172576
  C   4.88191327142906      1.68911838924053     -0.10372942342877
  O   5.74877575783099      2.49417613037611     -0.44753489314490
  H   4.01005269175801      4.03217785655276      0.87819899641876
  H   3.09344464205924      3.48467095861531      2.30731560458568
  H   1.74948375720891      1.98695966969316      0.87895197491306
  H   2.63950668495248      2.43563585869063     -0.52141701741795
  H   -0.87472093013298      2.80784612800382     -0.84362890841333
  H   0.43232011346160      2.85428574967159     -2.05061744658922
  H   2.43351955677098     -1.05268577986979     -1.90337788191618
  H   1.62076507263360     -1.10226822263651     -0.30588514187734
