26
Coordinates from ORCA-job 5707optt
  Br  0.84761238593008      0.34260121748014     -0.73725769650186
  C   3.13066450525259      0.12831197652701      0.27775209859789
  C   3.77572471834880     -1.07946349084050      0.28572230627998
  C   3.36269384788083     -2.42489291451208      0.43755351390933
  C   4.49828591897660     -3.21390342114216      0.37206366056091
  C   5.63590903629147     -2.39153398378208      0.18228268854774
  O   6.93210352855674     -2.88575481565090      0.12437696552819
  C   7.75199351419129     -2.38002339767024     -0.81675460825880
  N   8.97546622648142     -2.66648400763398     -0.90626860744934
  C   5.22851308908829     -1.07510688102691      0.12507089747936
  N   5.94082951703205      0.07745449210020     -0.04922837142396
  C   5.26156526575291      1.16640017803576     -0.05989766969617
  N   3.88678203673770      1.24097417995068      0.09836756640601
  C   3.24319513700361      2.54920775965126      0.08906112773544
  C   2.43656183544162      2.75639018650280      1.37372077294857
  C   1.96277278112979      4.13267257270408      1.48375935541276
  N   1.61669179451295      5.22294241727555      1.56397118990709
  H   2.34260388935626     -2.75290600004295      0.55782324708138
  H   4.53812013899003     -4.29091625876233      0.44969956528937
  H   7.27145732394989     -1.69544322172852     -1.51190831165321
  H   9.23390925149375     -3.30689135201167     -0.15436248151500
  H   5.76136556171485      2.11978644093992     -0.19206303509805
  H   2.57061869035646      2.60937363431892     -0.76686279472377
  H   4.01753062922153      3.30952410896927     -0.00324425372566
  H   3.05257671069355      2.52918571207851      2.24558459495285
  H   1.58245266561481      2.07549486827022      1.36303827940892
