26
Coordinates from ORCA-job 5711optt
  Br  0.68835221679925     -0.53785354397425     -0.43854303503779
  C   2.56110089667269     -0.32221893361456     -0.25696732113837
  C   3.42045849263514     -1.43939651957750     -0.23155569941569
  C   3.27853367988817     -2.84227906565071     -0.30766322277931
  C   4.54666602287831     -3.41764611635498     -0.18673118442118
  C   5.48795478875174     -2.37374419188908     -0.03946124816683
  O   6.86916843055499     -2.53504622795772      0.08408536192008
  C   7.43684059904031     -1.98630531813256      1.16747305742132
  N   8.68074064485845     -1.89904720199276      1.35929010403585
  C   4.81117720857253     -1.17280139403692     -0.07040220451849
  O   5.35621791744115      0.08993916047598      0.01347102967650
  C   4.46281238120094      1.13546749048945      0.01670796176966
  C   5.16841856628028      2.44161045180455      0.09189024081361
  N   6.13505194635812      2.43818961955073      1.18599548486934
  C   6.53702059100371      3.55087427252469      1.81448676634898
  O   6.14459077093783      4.67729357251584      1.57665749119177
  C   3.11298311564960      0.95561044623623     -0.11327634669128
  H   2.34263076304217     -3.36589102515150     -0.42700555539922
  H   4.78929040772993     -4.46943082548312     -0.20092804589849
  H   6.72076132603543     -1.61190244380197      1.89923700351639
  H   9.17759801064963     -2.28887387866086      0.55703447680561
  H   4.45766188577534      3.24810470996623      0.26139084387789
  H   5.70386699678391      2.65561866059532     -0.84248780139572
  H   6.54728802410840      1.54971016666550      1.42722275292670
  H   7.28012774354010      3.34745849975477      2.60386828537796
  H   2.48268657281174      1.83455963569919     -0.10378919568929
