30
Coordinates from ORCA-job 5713optt
  Br  1.81402992065056     -2.87154997709548     -1.08555807262999
  C   3.40443818300676     -2.02047944532611     -0.42337179395104
  C   3.53348414045838     -1.73610608418929      0.94550313832149
  C   4.63260255818492     -0.98211412179264      1.30553721191712
  C   5.68850002926224     -0.72516704780209      0.37968595204417
  C   6.88448331917609     -0.08359868233048      0.77541084096977
  O   7.94542245176132      0.00247476439276      0.12011786901889
  C   5.57355251702367     -1.49120035288754     -0.84642084390665
  N   6.70357027351813     -1.90067041112800     -1.51743191459759
  C   6.74707487276319     -3.29167460235652     -1.94542466961857
  C   6.66398405080478     -4.36840349624155     -0.83460006093694
  C   5.26996276292362     -4.71216369261980     -0.24590963503894
  C   5.06449843056700     -4.21377442169125      1.19672231782596
  C   3.59945817088729     -4.13615978257587      1.70458907236465
  C   3.07801303132173     -2.71009723209474      1.97900733366295
  O   2.47332204650459     -2.44668498482639      2.99232740144978
  N   4.42346831812115     -1.95407874590962     -1.27813188484473
  H   4.80765782305587     -0.78397552925075      2.35913396061429
  H   6.84077598387726      0.37297018753331      1.78334979404335
  H   7.54864231718223     -1.50544925031354     -1.11754280582033
  H   7.69532236537006     -3.42269757963009     -2.47131985160028
  H   5.94839107816486     -3.46118876187828     -2.66983986037363
  H   7.34293949983916     -4.07757730297786     -0.02508612717878
  H   7.08956815283110     -5.27720299367540     -1.27098839282657
  H   4.49307983867276     -4.31263230229501     -0.89602992180078
  H   5.14299485502789     -5.79896264774634     -0.24937375642205
  H   5.53368509542714     -3.23518531710467      1.29206845141067
  H   5.62987618537563     -4.87151232919376      1.86304124215771
  H   3.46793317783319     -4.68499521234744      2.63769451484665
  H   2.92826855040727     -4.58714264464549      0.96684049089943
