28
Coordinates from ORCA-job 5714optt
  Br  0.89191238796964      0.08964617648380     -2.87962015156873
  C   3.35135083005986      0.27804380774479     -2.16185875745319
  C   3.62927123903608      1.26183025220388     -1.29770024946227
  C   2.71443943288961      2.44595353174091     -1.10227903472149
  C   1.68098999733563      2.18588233016716      0.02507083664538
  C   2.23735054841802      2.32322176465948      1.45046253268991
  O   3.35543043876015      1.48893599336102      1.70804550350783
  C   3.17810969755267      0.27790551458976      2.25848394796752
  N   4.07212006331388     -0.60494250285495      2.29491522280887
  C   5.33107698575201     -0.31577461179740      1.58549867571297
  C   5.08616457003527     -0.17689008674337      0.09758491873276
  C   4.89672799834218     -1.27376933864283     -0.65203159671811
  S   4.16151460445023     -1.22813849460029     -2.22538681382780
  C   4.84405248933090      1.17391055897000     -0.46396150065399
  N   5.55274089618790      2.21170771174137     -0.22008562308611
  C   0.57382435353532      3.13820737838554     -0.06581602025893
  C   -0.30096030019952      3.95738979185768     -0.11167757861124
  H   2.15304920979787      2.60809076557696     -2.01984683609227
  H   3.29400468838722      3.34087095844318     -0.86652254806531
  H   1.27958597459908      1.17806322270473     -0.12954942515726
  H   1.44559539358151      2.11839973642705      2.17866063160013
  H   2.59067621716921      3.34386264226420      1.59932543175893
  H   2.19814711801410      0.10746451408461      2.70732278604190
  H   6.00613382271658     -1.14805577366217      1.78187354784575
  H   5.78410278743154      0.59598690187737      1.98593540587149
  H   5.07539142536992     -2.26527424790830     -0.24723422489466
  H   6.34006258804929      1.97081389191266      0.38215168847478
  H   -1.08886545788626      4.66665761101315     -0.18376076908689
