28
Coordinates from ORCA-job 5715optt
  Br  5.96416852462537      3.73814936595209     -1.29994879210994
  C   6.57502442284896      3.00316228387440      0.38934121178411
  C   6.83836023852166      3.85686790867564      1.46786326366919
  C   7.02117597971437      3.21515328479154      2.82661506985506
  C   6.88855728591687      1.68262649161370      2.76379327701101
  C   7.33279824168887      1.17873539703694      1.43387843306767
  O   8.11526955201579      0.04311211715301      1.36326517516825
  C   9.48499470828401      0.19086813183647      1.34159409685875
  N   10.20184990015672     -0.80925834907022      1.02751114006035
  C   10.11380993872389      1.42373736297180      1.84972559518124
  C   9.75731062361020      2.72144809189250      1.75000374724581
  N   10.45392863514825      3.61964744447331      2.54463816203591
  C   10.12789846872409      4.77639955118107      2.98362993338902
  N   9.08230613010795      5.66540063571068      2.86727786739388
  C   8.10649247605918      5.99001227758891      1.88428140481045
  C   7.18114149114425      5.21509272807895      1.26349367125613
  N   6.95258434087892      1.73523003173178      0.31293809282335
  H   7.97820235400534      3.48688388081484      3.27298583548807
  H   6.25698606527887      3.61003200650010      3.50940561389706
  H   5.82881381919329      1.41966265778073      2.89863759952873
  H   7.45211443427782      1.20404376021418      3.56459997299740
  H   9.58839287213266     -1.58537068231028      0.77908399021151
  H   10.99808164736064      1.21348826718337      2.43881943988345
  H   8.96868776317794      3.06811901540203      1.09120025362203
  H   10.84306118304092      5.18965894290823      3.69925936799984
  H   9.26006709414515      6.45235180821020      3.47072032188952
  H   8.17154518130529      7.03297610830459      1.59663017519353
  H   6.70937662791247      5.71076947949940      0.42075607978856
