30
Coordinates from ORCA-job 5718optt
  Br  1.17219217413556     -0.00770616923281     -0.42910940515314
  C   3.07743854063366     -0.14084753086591     -0.19976632375370
  C   3.66918602496477     -1.33061259199342      0.16523561483681
  C   2.91833629275381     -2.62298144196172      0.35169104384531
  C   3.20474321004579     -3.62765337526348     -0.77550980087533
  C   2.20296235551027     -4.76397228718158     -0.74705239457745
  O   0.88286971041704     -4.26082066442932     -0.98736064787106
  C   -0.08953652613588     -5.17611205276341     -1.07404882273494
  N   -1.29862349001028     -4.92476974346121     -1.31554907702837
  C   4.60916672006097     -4.24426524386117     -0.70668944151282
  C   5.76217290129825     -3.28056868962704     -0.57569530652437
  O   6.67829520185297     -3.22575695825430     -1.39652605354063
  N   5.79260599603123     -2.54190127577492      0.65164999855209
  C   5.08740121120606     -1.35121699342610      0.28529151710017
  C   5.82776379441779     -0.16307338510239      0.07897813241929
  C   5.18472369205293      0.99839865357308     -0.29582227721114
  C   3.80023633387779      1.04469138689367     -0.45240947499684
  H   1.84858437643079     -2.42998470157411      0.38767607106792
  H   3.19094184376019     -3.08751259886973      1.30649805567502
  H   3.09684752648443     -3.10462195266004     -1.73055698644210
  H   2.22460382078517     -5.25963527648141      0.23080880954520
  H   2.44667632107456     -5.50286349459587     -1.51741423142910
  H   0.23755901539839     -6.20636938083200     -0.91792013531132
  H   -1.42583310689987     -3.91864193877889     -1.43611158838755
  H   4.78778380200926     -4.86338049026373     -1.58779083771828
  H   4.63396589955536     -4.90995556799134      0.18234379572077
  H   5.33473313994168     -3.04797521211634      1.41436739370191
  H   6.90142894092978     -0.20717240102572      0.19710500731481
  H   5.76354583110840      1.89893451406384     -0.46907757975415
  H   3.28622844630903      1.94934686385741     -0.73923505495699
