30
Coordinates from ORCA-job 5728optt
  Br  1.25124930424891      0.14106416156965     -1.19517983874879
  C   3.04930386824712      0.03627156068610     -0.54003084381736
  C   3.56898259602312     -1.21258914432722     -0.09132792487686
  C   2.80064986414425     -2.49517027130404      0.01951939474804
  C   2.29253282029089     -2.81475892775395      1.44826647952511
  C   1.32206120527398     -1.75523085226647      1.91005368643602
  O   0.89401722265027     -2.05580224746174      3.25358660503731
  C   0.24892294053484     -1.08005710093357      3.89963466369378
  N   -0.25708840681267     -1.18809489403473      5.04979167824437
  C   3.73442898806632     -3.53479789581947     -0.55151026519256
  O   3.39397375453355     -4.36058598981862     -1.40101031133194
  C   5.16628929868529     -3.51626561804429     -0.06112995064791
  N   5.41480586000584     -2.40534693357254      0.85169000234918
  C   4.89350403234079     -1.17819745930666      0.40214304842099
  C   5.63937671537638     -0.01724185056360      0.45242627321754
  C   5.07712851126466      1.20667239741174      0.00097694716987
  C   3.78764019361281      1.21112313194644     -0.50483304661779
  H   1.93665611985755     -2.47500618768821     -0.64814659463889
  H   3.14167698603314     -2.85379328981916      2.13285693924227
  H   1.80268570817664     -3.79308369946546      1.44924266905003
  H   0.44203162538868     -1.72154253941843      1.26218984225972
  H   1.79927892472229     -0.77165731496680      1.89476091137734
  H   0.18794012998642     -0.13533949521060      3.35636524410231
  H   -0.10564001460233     -2.13493228375422      5.40114431309345
  H   5.81731067732212     -3.48079022486617     -0.95081480658661
  H   5.37454093547063     -4.46025960857899      0.45396548793639
  H   6.39549778621574     -2.31887503653267      1.07936980642808
  H   6.65686226448252     -0.05733166699217      0.82545900678866
  H   5.65068380991315      2.12329466579466      0.03446596284449
  H   3.34269627854704      2.13032461509123     -0.86392537950624
