26
Coordinates from ORCA-job 5737optt
  Br  0.70765592822145      0.09277340555898     -0.29398444678076
  C   3.24382315180913      0.00115529621560     -0.68187420503683
  C   3.80998631068167     -1.22684469279019     -0.49408971254504
  C   2.98614326195724     -2.42285830193957     -0.90122169353553
  C   2.26753408595710     -3.18437645859733      0.22923585805696
  C   3.16203079084568     -4.11191963311142      1.02538772263063
  O   4.34319217247058     -3.41522002548632      1.42132504651297
  C   5.44190338562509     -3.58347867518812      0.64020815887263
  N   6.04954873238436     -4.67790494123388      0.42401732121975
  N   5.90156828022435     -2.39823244437567      0.15025138861924
  C   5.15764702926208     -1.21797233343164     -0.02746517531768
  C   5.81524565908636     -0.04000714464969      0.20309829520601
  C   5.18433851687513      1.22320157758717      0.00391314238407
  O   5.64659404275957      2.32424666190737      0.17212979863041
  O   3.85661470285251      1.13898119521297     -0.43502786461588
  C   3.64179817397648     -3.34576165185279     -1.89484762642168
  O   4.63440183164828     -3.11666350976791     -2.52855592482615
  H   2.16018378176074     -1.98781182568941     -1.48284011615687
  H   1.44842988609171     -3.77373763182065     -0.19470365308704
  H   1.81302162544452     -2.43266599275416      0.87484360033375
  H   3.44419943290066     -4.99736539653869      0.44735685553488
  H   2.67095505677899     -4.44438153246579      1.93999323628553
  H   5.63625359159420     -5.42110390568324      0.97931403131208
  H   6.82556125977369     -2.43027781361549     -0.24893313859062
  H   6.82892616997511     -0.02924340025018      0.57443172405942
  H   3.08844313904316     -4.29753082523986     -2.05896262274424
