25
Coordinates from ORCA-job 5744optt
  Br  5.38418873097910     -4.26791699090905     -0.27261312111246
  C   6.18070999299202     -2.69068336452467     -1.10791508952050
  C   6.17428903073587     -2.60091501664785     -2.49657544557757
  C   6.46170031172583     -1.24565595649210     -3.11348076334277
  C   6.60028975023779     -0.15890272492250     -2.03512772322802
  C   7.25261322911721     -0.75956717986776     -0.82814446120875
  O   8.67066227334204     -0.78199620279627     -0.93391229036077
  C   9.44042922250919     -1.83079635864396     -0.60053533559132
  N   10.56458867176309     -1.72847622747515     -0.04706918545215
  O   8.95689219310581     -3.08065435658652     -0.88785694567127
  C   8.76164588025273     -3.42146603805626     -2.18541780695618
  O   9.19509959346580     -2.78872312907177     -3.10568998283244
  C   8.06017202641782     -4.76733573256748     -2.33345820178955
  N   8.62560338787641     -5.75617871646850     -1.76206053754537
  C   6.91461223372042     -4.79287571759619     -3.24476093081456
  C   6.10735538314111     -3.72233139038647     -3.39022348413603
  N   6.63630144622477     -1.83147580715139     -0.23656797096497
  H   7.39804788515015     -1.30935817791466     -3.67942904847645
  H   5.67337051809822     -0.97889899958972     -3.82902871952125
  H   5.61307450403461      0.18779552201142     -1.72327037531463
  H   7.16598233162601      0.69514190504745     -2.40872717850797
  H   10.72405261466037     -0.74881815000722      0.17354043533864
  H   8.09107113558431     -6.60630024163079     -1.94621545589713
  H   6.77728745546657     -5.69930134487521     -3.82601089859590
  H   5.43496019777251     -3.67830960287729     -4.24844948292057
