25
Coordinates from ORCA-job 5748optt
  Br  1.30035033579981     -0.10445778745486     -0.77187001424778
  C   3.15981738541004     -0.08126618271164     -0.26773690394107
  C   3.80363052825024     -1.31821510979384      0.03012848823979
  C   3.08249976654462     -2.51012604409464      0.60724204752400
  C   3.19187768993349     -3.81814444315630     -0.18862603058214
  C   4.59465349277690     -4.35263510781230     -0.26701868253839
  O   4.87137765128015     -5.50680365411190     -0.05503485683236
  C   5.70534744686411     -3.36004910589528     -0.64466801438999
  O   5.92837348703540     -2.37729329668238      0.35344350003360
  C   5.20540079537320     -1.20017248423694      0.19623828780051
  C   5.89520395340784     -0.02447539978481      0.17208635289992
  C   5.18294883311894      1.20526084267289     -0.01084141415014
  C   3.79292709514734      1.12571430772957     -0.29865558811484
  C   5.83459234973758      2.44949139058692      0.02893876282379
  N   6.37370587844513      3.47701027064858      0.05130100167648
  C   5.43915063856505     -2.78227772179673     -2.02530192902161
  O   5.04206005433551     -3.47765919100484     -2.92856252527925
  H   2.02441076650015     -2.26911110072164      0.69673710307121
  H   3.44799409907870     -2.69630244353319      1.62499219573022
  H   2.85910163723686     -3.63539069542363     -1.21543095563779
  H   2.56892451104353     -4.60093714930653      0.24496764152427
  H   6.62565959674138     -3.94814188831710     -0.70200294578590
  H   6.97331700613370     -0.03926010436439      0.25926346487043
  H   3.24786218301153      2.02291137670422     -0.55779688649843
  H   5.69981281822863     -1.72066927813918     -2.16679209917452
