28
Coordinates from ORCA-job 5752optt
  Br  0.83576422121988      0.56067344520459     -0.52268677868207
  C   2.69444478255514      0.28692158421987     -0.28578594852620
  C   3.29640679117423     -0.95644048487936     -0.58448167638897
  C   2.54189202513002     -2.18257518320374     -1.01535164556881
  C   2.24744415389726     -3.17435439708641      0.11794190289387
  C   3.43300109186548     -4.01394138491265      0.57662096416123
  O   4.40928550684302     -3.27545184039751      1.29293722555885
  C   5.55643799225258     -2.95345797370569      0.56708783541170
  O   5.28761283964510     -2.25240559336768     -0.61401879381937
  C   4.66763529591007     -1.02887298588054     -0.39759957248462
  N   5.47253524195559     -0.07513243420519      0.01553820065765
  N   4.83482994375305      1.13963147232178      0.25220043529889
  C   5.71677817358828      2.11624089756399      0.80050874661915
  C   6.23523247108769      3.10285093987244     -0.17713326398581
  N   6.65298172398922      3.88035623245895     -0.90963947085692
  C   3.46374826904617      1.42367701050451      0.09914782201926
  N   2.95973916131228      2.60332298108525      0.29700495888998
  H   3.10756716447768     -2.70350222490213     -1.79306291813557
  H   1.59483516387585     -1.87355249182050     -1.45653286150453
  H   1.47537309565471     -3.87874475590357     -0.21409162945504
  H   1.84343571784115     -2.63481546357678      0.97853032614427
  H   3.89957582971301     -4.50408675600274     -0.28710789220827
  H   3.07874223835938     -4.79321888800038      1.25751737158649
  H   6.08005624200083     -3.86068247540557      0.24414134095293
  H   6.17642377793979     -2.35488872545541      1.23628837141447
  H   6.57327188913665      1.58302156451563      1.21178542999321
  H   5.23146532041796      2.67317886582293      1.60667128108500
  H   3.66848387535788      3.30424906513592      0.47657023892925
