24
Coordinates from ORCA-job 5753optt
  Br  1.02431796663171      0.23740105864180      0.12956549225246
  C   2.90511412705479      0.10878562392949      0.01001170678469
  C   3.48792350564588     -1.16981926826591      0.08626954650984
  C   2.93327053359999     -2.51632323083051     -0.24115283553113
  C   3.86898325813132     -3.61245349377154      0.29384136801913
  C   5.28280172408681     -3.52787400317164     -0.29150443639388
  O   5.25490406579509     -3.96467424047427     -1.68158833198027
  C   5.33642821049391     -5.26476335945548     -1.90169491704135
  O   5.41984922521521     -6.13037035576970     -1.07472556948727
  C   5.77168766754459     -2.12607725763425     -0.26877271942308
  N   6.98367869444334     -1.64112700970642     -0.37786986318975
  N   6.89045861470242     -0.27355500965809     -0.31500513051599
  C   5.61880141495174      0.00277351492443     -0.16309199641186
  O   5.06043861336360      1.20971524870100     -0.03340126960473
  C   3.62833921455765      1.32158275712397     -0.00997064462263
  N   3.16079515374886      2.51747733938452      0.01491031553219
  N   4.87580683983354     -1.11644595380536     -0.11591612509814
  H   2.82133093149579     -2.65296667731584     -1.33145004106245
  H   1.94101116443055     -2.62921348264650      0.19375622199364
  H   3.47434679435149     -4.60751844173051      0.08468307541763
  H   3.95473162330840     -3.50743736505940      1.37863876231286
  H   5.96859716816502     -4.18705108306341      0.23736500359404
  H   5.32105116433710     -5.45435935905327     -2.98344892611041
  H   3.93233232411110      3.17729404870690     -0.01644868594352
