26
Coordinates from ORCA-job 5755optt
  Br  1.44620587399969      0.53475977927510     -1.44575467837758
  C   3.10991209815227      0.23073348252180     -0.57277600740321
  C   3.69244917376711     -1.06404439437002     -0.55212766192862
  C   2.90241971652436     -2.26232149407785     -0.98538031819452
  C   2.04475651882343     -2.97327066439498      0.11817801460853
  C   2.84732683714665     -4.05016456132638      0.86634016929755
  O   4.11581384678609     -3.51500356380275      1.21536346309919
  C   5.07827622856088     -3.66372989250064      0.27332748337759
  O   5.25985971886401     -4.70106795576196     -0.30444842033103
  C   5.83989861003458     -2.39276955816232      0.01841260245137
  C   4.99241810815576     -1.14251438961728      0.01705985773192
  C   5.56165672124043     -0.03324678017345      0.55393487614381
  O   4.96137255388788      1.19864652960117      0.57372177797218
  C   3.74428031355758      1.39907215465350     -0.08340501303056
  N   3.31585601660540      2.60831404570436     -0.16502972586527
  C   1.44939888994246     -2.05227351258326      1.09198069096869
  N   0.94056999401544     -1.43773647095563      1.91552757729446
  H   3.53961483948331     -3.03314737848312     -1.42692803259034
  H   2.21265235743316     -1.96355374813547     -1.77246597697173
  H   1.20581639216721     -3.48272127180213     -0.36682932332512
  H   2.98605432092245     -4.92191767132894      0.22594625881524
  H   2.35338921809696     -4.34784239352280      1.78910654101739
  H   6.35735823123012     -2.54669487414530     -0.93045741867067
  H   6.60451920774139     -2.30272716205887      0.79605110546845
  H   6.54481159353421     -0.01086267763678      1.00175206114233
  H   3.99031261932706      3.21608442308403      0.29290009729996
