28
Coordinates from ORCA-job 5756optt
  Br  1.25483640914936      0.32648836601348     -0.71556781537310
  C   3.14414868840853      0.09194286923867     -0.46597643529392
  C   3.75220027545917     -1.16015720075200     -0.59005576858106
  C   2.90382474702233     -2.35572043267646     -1.03743355991344
  C   2.42477475944325     -3.27068432402107      0.13442363063789
  C   3.64914659791621     -3.92135001068485      0.73835789492446
  O   4.12942851085952     -4.95079666457638      0.19114599345936
  C   4.38749905316884     -3.07242507613763      1.63135527089862
  O   3.88113059776430     -2.19380634766297      2.37372576957365
  C   5.87184731566613     -3.02888185286259      1.29893740678687
  C   5.94248662119801     -2.49723169787435     -0.15831174905633
  C   5.13548181700706     -1.21971886191344     -0.29258731345692
  C   5.81308398373207     -0.04682773551561      0.03035657482115
  C   5.18199322007682      1.18119431177323      0.10445558229031
  C   3.82250014100943      1.25302305098493     -0.13033396853148
  C   3.53104393976531     -3.09731335580147     -2.13674011611704
  C   3.98751826883848     -3.66252150991747     -3.09043018564314
  H   2.00200303887107     -1.93850784630278     -1.48532609147108
  H   1.74376338551635     -4.01853933546216     -0.27658143053303
  H   1.90735261023869     -2.63533490961762      0.85368284698917
  H   6.34421853920487     -4.01140716037038      1.33349773185014
  H   6.36881593006718     -2.34508110353860      1.98987482997734
  H   5.57516422904937     -3.28341958421031     -0.81356794607451
  H   6.97803311413834     -2.28137781208520     -0.43790877066597
  H   6.87097877809794     -0.11838306471085      0.25634843093269
  H   5.73705743255227      2.07369779001013      0.36479241162846
  H   3.28629803133598      2.18817374061096     -0.05483860054087
  H   4.41836996444297     -4.20103424193718     -3.89829462351821
