22
Coordinates from ORCA-job 5758optt
  Br  1.15577394870277      0.22122905742572     -0.04871008779315
  C   3.04975146663523      0.02323530890965     -0.34491905900654
  C   3.67795471863178     -1.21979362797189     -0.22054833663913
  C   3.34173644275677     -2.56523235212330     -0.51156592682363
  C   4.47697184700780     -3.33601113212190     -0.27383626202093
  C   4.59050716617155     -4.79203218333016     -0.49273826582278
  O   5.08891572585805     -5.11037532575257     -1.84670463507430
  C   4.18073504346213     -5.26029988302651     -2.78949730130957
  O   2.98727984036727     -5.28413512985968     -2.65064813908429
  C   4.81075754830533     -5.42673503465070     -4.10326871762276
  C   5.28120314131565     -5.55927408472063     -5.19557427897165
  C   5.54582972809643     -2.49391295321557      0.17340838871606
  C   5.02745855922418     -1.22428318586332      0.19856910192880
  O   5.67366457351683     -0.05978361337796      0.58970451894072
  C   5.00884975297310      1.09571453964887      0.61485746270776
  O   5.52979423676026      2.10189053859563      1.00114668107756
  O   3.73604090649839      1.12334930582932      0.17430354546214
  H   2.38732301567460     -2.92391790394332     -0.86610527873255
  H   3.63602816500567     -5.30153575618497     -0.37705469624318
  H   5.34179738972374     -5.24839944774756      0.14931579547957
  H   5.70007854782632     -5.67615625385646     -6.16595901525507
  H   6.54354823548599     -2.80054088266258      0.44782450608692
