27
Coordinates from ORCA-job 5762optt
  Br  3.17006082100556     -2.31332390400300      1.56077997280310
  C   4.51558953598738     -1.45635553146292      0.55370557135454
  C   5.76451172130738     -1.10347406149522      1.11119541099670
  C   6.54859973733760     -0.20328177577663      0.30405358841815
  C   6.28978739590609     -0.04388095512911     -0.99109910476153
  C   7.28214281016067      0.52462151540444     -1.94343122209962
  O   8.33097196845710     -0.39512583322527     -2.29238141813229
  C   9.28342081668603     -0.61298272605988     -1.31401559701734
  O   8.89020381520590     -1.61894262534527     -0.41460115485976
  C   9.56599806108724     -1.60585790876681      0.82301429175113
  C   8.70628525133394     -2.21351014846813      1.92052882246459
  O   7.74472139199743     -1.29102672770095      2.38998544749324
  C   6.40129305436078     -1.72702679077545      2.22662316238265
  O   5.98750228023569     -2.58434467205223      2.98232188389661
  O   5.20310604657316     -0.62093920871327     -1.59164942779003
  C   4.17968781278964     -1.15957358930239     -0.80298245579623
  N   3.05729583422227     -1.38949737722563     -1.37885705237907
  H   7.43902078398683      0.24343767780592      0.71878559717583
  H   7.74064994093492      1.41908120643249     -1.50800445589571
  H   6.80956594660085      0.78748647376418     -2.88868963173684
  H   9.47630916507687      0.31675943352675     -0.75264381411847
  H   10.20038519262832     -0.91725472596348     -1.83338879311617
  H   9.81058273912859     -0.57583805184405      1.11571059590365
  H   10.50810505093172     -2.16677596231671      0.74419634530038
  H   8.22271742452012     -3.12065390427773      1.54741543813159
  H   9.36007484851014     -2.49672726969706      2.75212235553780
  H   3.13141055302719     -1.10499255733253     -2.35269435590691
