27
Coordinates from ORCA-job 5765optt
  Br  1.90776677526962      0.38230045565276      2.94861072010734
  C   2.79189843047059      0.60093998197317      1.23126263800999
  C   3.65627683436691      1.69994381764031      1.07443387438706
  C   3.44185535258893      3.01802695296827      1.76246929006460
  C   2.60429687016363      3.95225685205493      0.84128801419243
  C   1.14285676013544      3.59707948842951      0.85268988295623
  O   0.38934922233045      4.07116079499482      1.67207436098764
  C   0.47509612015886      2.64686832320193     -0.14521425136446
  O   1.32223673026044      2.04364660782382     -1.10025786792305
  C   0.81260110778234      0.94767514657368     -1.73519090553893
  N   -0.41531407373487      0.69184786302277     -1.90722548448666
  C   1.88711676551917     -0.03665455515910     -2.16243239488945
  C   2.89516837306847     -0.18832725042803     -1.04529889940296
  S   4.47796045838363      0.48654757871514     -1.27969069824285
  C   4.55357428898439      1.80290149422417     -0.02039326714627
  O   5.32996219312655      2.72965559301232     -0.23650118952173
  C   2.39076139317015     -0.28959967100813      0.25824714213413
  H   4.40256179784703      3.50898139497945      1.91870447371723
  H   2.94267943460524      2.91343172255874      2.72481580410005
  H   3.02216949144429      3.90455022990178     -0.16476007783543
  H   2.65951541183582      4.97739867229368      1.21220767460885
  H   -0.30984078516936      3.23955842370533     -0.62921076044969
  H   -0.00805559432203      1.87170154168986      0.45851832036990
  H   -1.01975052646017      1.42404647503294     -1.54156371400265
  H   1.36112124328514     -0.95910560565865     -2.41547313587677
  H   2.38178843512659      0.32897214416659     -3.06416363931440
  H   1.50734748976262     -0.89580447236218      0.44205409035983
