23
Coordinates from ORCA-job 5766optt
  Br  1.10184545705002      0.06853973998348      0.07562739241706
  C   2.99289976004272      0.00675199953022      0.01582876777563
  C   3.65725638228943     -1.19865157515720     -0.05266304057259
  C   3.34449730092324     -2.54722924355877     -0.10286726213414
  C   4.54959070645067     -3.27841783287153     -0.15109346661629
  C   4.48104988486803     -4.74991486332820     -0.20885319923779
  O   3.34244603154967     -5.29768844585609     -0.24938763214391
  C   5.62574452020745     -5.63645463276982     -0.20764052086300
  O   6.84767092747974     -5.38266241679179     -0.16951421904470
  C   5.65876641923853     -2.36535979805599     -0.13414253120364
  N   7.00409105454259     -2.76943505779458     -0.17125954087977
  C   8.10357980544504     -2.02863696583364     -0.19350510153792
  O   8.19610219890928     -0.79735635979089     -0.19248562091076
  C   5.12597835942140     -1.08741437556052     -0.07657260608105
  N   5.68103872243297      0.13983680893630     -0.04311167755215
  N   5.02533860812980      1.27845700309226      0.01307428871584
  C   3.70549624280316      1.20964938082205      0.04479805393302
  H   2.36697758711188     -2.99728618785507     -0.10349975284475
  H   5.30485455957081     -6.68889042892073     -0.24376634151020
  H   7.11109694229564     -3.81015588565324     -0.17232403069609
  H   9.00988314612325     -2.64996330828967     -0.21367056211805
  H   6.70534986955799      0.17588977543808     -0.07691077898598
  H   3.19044551355661      2.15839267028535      0.09493938209125
