20
Coordinates from ORCA-job 5771optt
  Br  1.18684692074407     -0.28849125331358      0.13274937015429
  C   3.03566560118197     -0.00761609515524      0.05114480615389
  C   3.64551419565939      1.21888302242530      0.02760106769960
  C   5.08325512760202      1.21751580248665      0.01402224484715
  C   5.54433750007606      2.55723718665173     -0.00163106681119
  C   4.41824300392124      3.34482266051540      0.00493465483599
  O   4.43306037532729      4.73678656485270     -0.06986222105409
  C   3.94778935767532      5.42426297833522      0.95301756308691
  O   3.56980625972179      5.00840244653291      2.00948648908608
  C   3.93433155871930      6.93100553645416      0.69117606820642
  O   4.47558035978200      7.47494625408491     -0.22292109832157
  C   3.22146024579799      2.57600001018214      0.01814054240025
  C   1.92712933316794      3.12315590529985     -0.01621707617186
  N   0.89073389892457      3.63250347309311     -0.05714573997214
  C   5.72077492457729     -0.03330260934211      0.05230647619300
  N   5.14412682423499     -1.19380523941825      0.07251004130632
  O   3.72547519679869     -1.18840222315098      0.03855302254427
  H   6.56486579515945      2.90505852882705     -0.01589986769428
  H   3.39012477353772      7.47507430064607      1.48304058731250
  H   6.80387874739083     -0.11403725000706      0.07599413619845
