26
Coordinates from ORCA-job 5775optt
  Br  2.08814598465650     -0.92617000127435     -2.34092438371993
  C   2.76919517219936      0.03601316250490     -0.84877969050028
  C   3.13223436913129      1.38345021279443     -0.95361470891300
  C   2.67094608140442      2.25497386939306     -2.08535363646937
  C   1.16996015146457      2.58598078351377     -1.94079480928970
  C   0.79207178225334      3.49333133674036     -0.77539323937692
  O   0.86129728614546      2.79634527800786      0.47374039797421
  C   1.63880441898371      3.30538567672420      1.43731478190150
  O   2.09983387715253      4.42231162955793      1.41723514039449
  C   1.93974786137073      2.29830196276178      2.54245301734925
  O   1.06210834815646      1.63345222459412      3.06393222527926
  C   3.43289209086297      2.06735175289421      2.69349747455220
  C   3.63064807497518      1.34895772780957      1.39340823265326
  O   3.35699056271561      0.01506901401725      1.45701931753651
  C   2.95367103447222     -0.72485874030976      0.33732456761832
  O   2.79582730359975     -1.91104812135581      0.51199652316221
  C   3.67588637767444      1.99486678608590      0.17208913520788
  H   2.81787423313153      1.76523462542890     -3.05034920538061
  H   3.24826112281210      3.18370291296771     -2.08753699851400
  H   0.60760942911829      1.65243744816241     -1.86894034380984
  H   0.83355717096133      3.09488097414632     -2.85046689525350
  H   -0.24101982795889      3.82768288123693     -0.89275034621747
  H   1.43494976423983      4.37322484183520     -0.72946093120187
  H   3.98745245512864      3.00393628812278      2.71430481371198
  H   3.64669114654878      1.44547508212485      3.56032279206373
  H   3.89736372879981      3.05371039151546      0.15772676924169
