25
Coordinates from ORCA-job 5780optt
  Br  1.09229579246101      0.19504405486447      0.28754623077092
  C   2.97676135609559      0.10824435483395      0.11278222712934
  C   3.60783021434047     -1.09430088727636      0.11034606720490
  C   2.92553414466638     -2.42976773955380      0.19169228762837
  C   3.75346972006038     -3.49345879349489     -0.52321778184161
  C   5.12105752582021     -3.61591082963193      0.13012496261994
  O   5.60991564199403     -4.72984271089385      0.38722003631872
  C   5.73948741573377     -2.37684552485709      0.49493400671206
  O   6.76583545170337     -2.16199820548143      1.14136704655574
  N   4.98466024630111     -1.16352634857812      0.01450780540919
  C   5.66771586083075     -0.01139823660076     -0.23229660353768
  O   6.98112485811486     -0.15208969159364     -0.58802188693755
  C   7.93074546278849      0.16195415823423      0.34144349685454
  N   9.14694411020755      0.27008217866602      0.06319403933813
  C   5.08829590730008      1.20796514821850     -0.24513629866995
  C   3.67257552662766      1.38441077369049     -0.00122858740004
  N   3.04525914772707      2.50899743884948      0.06140245601357
  H   1.92652228725187     -2.33928399703239     -0.22973810817442
  H   2.80946196219321     -2.70391372939410      1.24585444968657
  H   3.84376110706768     -3.23514296556213     -1.58409564068276
  H   3.27350307920304     -4.46897474927871     -0.45464510356028
  H   7.53637814140185      0.32122406733317      1.33968404400883
  H   9.30226728651923      0.06209914582790     -0.92360601361274
  H   5.69702319826691      2.06382305292825     -0.50493708480393
  H   3.70757455532333      3.27361003578277     -0.05317604702986
