19
Coordinates from ORCA-job 5781optt
  Br  1.24257714122174     -0.00399169523222     -1.12209380707291
  C   2.89666450639648     -0.07708088724426     -0.15943803730012
  C   3.65901666202513     -1.25817994424624     -0.12233525120770
  C   3.37746147101154     -2.61885685461062     -0.32224753451303
  C   4.60070038582718     -3.27996649854143     -0.11400825432175
  C   4.86407536769921     -4.74147240439412     -0.20664122275815
  O   5.04417344225045     -5.18132289629641     -1.58885999722351
  C   3.97095814973279     -5.59153716470842     -2.23626649453848
  O   2.86041503729422     -5.71626710736376     -1.79916013837611
  N   5.61256618989619     -2.44612953994288      0.18377005818159
  C   5.05960041302076     -1.21216994732364      0.18115862058450
  C   5.77978892035093      0.00121416832869      0.31284276382869
  N   5.29226074610111      1.19992681451264      0.28622823699838
  S   3.64146185802267      1.45637069143252      0.16119627386410
  H   2.43179327722035     -3.06728631617325     -0.58454140683900
  H   4.06152091284692     -5.33860120434058      0.22315425921299
  H   5.81422473852016     -4.96538136413475      0.27121844187891
  H   4.24083684514150     -5.83124563307938     -3.27486967315279
  H   6.86190393542060     -0.06702221664186      0.41789316275442
