24
Coordinates from ORCA-job 5784optt
  Br  0.98262875005485      0.29747197466316     -0.49976779168580
  C   2.83848588732425      0.07838796299539     -0.23090555143764
  C   3.47859924147907     -1.09861641060624     -0.48860884887873
  C   2.78372475479151     -2.31320426568540     -1.03442197011820
  C   2.24900027713341     -3.21701943343524      0.08693611316446
  C   3.08751847614137     -3.41736376335835      1.35582715051252
  O   2.46412115537166     -3.44434052671372      2.43702540407673
  C   4.50622724771372     -3.63864335260148      1.32009437436291
  O   5.22770939878295     -3.94965195845364      2.27503488147906
  N   5.20693488932455     -3.56241031426265      0.01399854062500
  C   5.70045429162327     -2.41235388137442     -0.50725130876623
  O   6.73482002309288     -2.35318472177636     -1.15743467059348
  C   4.89171010343152     -1.17365419279858     -0.25652796349538
  C   5.54931296283411     -0.07628510317327      0.17652603854879
  N   4.88037398684232      1.07541415993167      0.42716515905901
  C   3.51548683861785      1.26807702154438      0.25550745467055
  O   3.01957376148946      2.35572219197882      0.49371031822564
  H   3.48733384665641     -2.85878798415055     -1.65975990014354
  H   1.95220960239375     -1.99991829365892     -1.66602504762459
  H   2.00931906888223     -4.19332605520861     -0.34825072231960
  H   1.31239920696155     -2.79696965665439      0.45632596424919
  H   5.88823846578125     -4.30951065354332     -0.06543427795720
  H   6.61675179471025     -0.07651495887737      0.34586898988416
  H   5.36906596856559      1.88768221521919      0.77336766416235
