23
Coordinates from ORCA-job 5785optt
  Br  1.12377913599446      0.12814964981040      0.34073103408523
  C   3.02447826205494      0.10548138164700      0.17034761693108
  C   3.66885540284274     -1.13160605354834      0.34986516961140
  C   3.18892792942219     -2.49020307855938     -0.04809971811512
  C   3.00463798041314     -2.63956086760327     -1.59277240645558
  C   2.40200771198840     -3.95931776498475     -1.96695273063423
  O   2.83600717510464     -4.70825272546431     -2.80232125352462
  C   4.16025840012967     -3.56983428346006      0.41808301522922
  O   3.81038544403286     -4.65963987392825      0.76092975230143
  O   5.50093936169126     -3.30584111509909      0.37429406972294
  C   5.92915185367816     -2.03660633158696      0.12343341767611
  N   7.14220331065364     -1.64099279519840     -0.10314831164302
  N   7.07292573126549     -0.26514897377277     -0.25421093590989
  C   5.80909058657210      0.09822760782950     -0.11324062625463
  C   5.10940302525911      1.33719298233174     -0.17022472734086
  C   3.71500155381867      1.29205420155261     -0.03280158580750
  N   5.05341377096167     -1.02399951187188      0.13412312028507
  H   2.23852782803691     -2.72386592634397      0.43057482051875
  H   3.94561983773430     -2.49372367470090     -2.12514553428908
  H   2.30710903192369     -1.84649194725106     -1.88264410394137
  H   1.48793252750952     -4.22948727495555     -1.40006093360663
  H   5.64132653037964      2.25619140559849     -0.35323815440811
  H   3.14801760853271      2.21327496955925     -0.07352099443059
