26
Coordinates from ORCA-job 5786optt
  Br  1.11608380587789      0.11770508277711     -0.45392996948642
  C   2.97623943466865     -0.01587739831491     -0.20359825730250
  C   3.59632711482049     -1.23148983950978     -0.08073374524233
  C   2.86513543155867     -2.55928158390681     -0.05396585545427
  C   2.29299508159357     -2.79558289524217      1.35708516535836
  C   1.73741086860192     -4.20630667895276      1.47491770108331
  O   0.72883636096181     -4.52192360366955      0.79570283118343
  C   2.42795809240750     -5.09589914688256      2.35197629334809
  O   3.46702729702883     -4.82308048983817      3.01432205223123
  O   3.71016207886848     -3.59251952201987     -0.50817807483131
  C   4.85330514760093     -3.72591026771705      0.30686733132251
  C   5.73245046105631     -2.51145243145363      0.08884021135012
  N   4.94559156104898     -1.26673608315607      0.09529484162092
  N   5.70726628971393     -0.17515044684026      0.13793410356016
  C   5.14512440214124      0.97953756985232      0.03056206813413
  C   3.71616225778180      1.21929719802988     -0.16337923511949
  O   3.25799999907022      2.34851659188637     -0.28107932942905
  H   2.03728912703900     -2.52778541048155     -0.76025475513691
  H   1.48056950804113     -2.07965833165315      1.49785714329491
  H   3.04846161847950     -2.62241970441021      2.12460784620776
  H   1.96998533595435     -6.09791908338984      2.41939422272291
  H   5.38323109492514     -4.61829655275879     -0.02456444099558
  H   4.58078255027878     -3.86852535985144      1.35648719893257
  H   6.22966892822920     -2.56699747958309     -0.88194701179528
  H   6.48886254936627     -2.41063445530347      0.86492497924528
  H   5.79907360288536      1.84239032238946      0.07685668519743
