25
Coordinates from ORCA-job 5788optt
  Br  7.35306073567304      0.60683610116562     -2.05331837883048
  C   6.75973535434640     -1.02571639546340     -1.27214263306646
  C   6.80235596043943     -2.17698563714037     -2.00688047697915
  C   6.19918630749615     -3.43563099293217     -1.39407187923553
  C   5.86354441070570     -3.33238371270122      0.10564346535311
  C   6.75334473162735     -2.32819672329654      0.75810447214593
  O   7.42767130653681     -2.66327436848868      1.93558118787603
  C   8.41682348207043     -3.58020777590203      1.91619007250046
  O   8.87404723638910     -3.96855229781725      2.94946208853765
  S   8.96234916885375     -4.40736189124832      0.38892500273867
  C   9.23885893364671     -3.16096636524814     -0.97838368608131
  N   9.67388772390591     -1.99738716651841     -0.78501400795657
  C   9.12443445912059     -3.78774961594253     -2.33273520796128
  N   9.78300095010037     -4.90245742028229     -2.59248394104419
  C   8.34545769841940     -3.16041810026728     -3.36233718305889
  N   7.35441790727068     -2.30071914138692     -3.23976539756584
  C   6.99073929160385     -1.16421013353891      0.15525364828420
  H   5.27301023122880     -3.61038658037385     -1.94756947460132
  H   6.84721552771971     -4.28590989845933     -1.59545222414031
  H   5.95179592753968     -4.30828177207817      0.58247827353810
  H   4.82646528282073     -3.00170937839657      0.21844091037783
  H   9.74024878141387     -1.75177814964304      0.20162486464308
  H   10.38114747953744     -5.16165318280015     -1.80962920029177
  H   8.62364084576217     -3.45696416897948     -4.37100580842286
  H   7.59956026577138     -0.40993523226033      0.63908551324095
