26
Coordinates from ORCA-job 5791optt
  Br  1.26241656118593      0.04287022394583     -0.87418071224373
  C   3.14989176873648     -0.03257539180133     -0.63583945468865
  C   3.94512511361914      1.04753872690258     -0.45346957152237
  C   5.33869244275280      0.76962352367340     -0.12329954023263
  C   5.75410576890245     -0.55200688914774      0.11845833115587
  C   4.91926315966696     -1.66059010058821     -0.11440591298757
  O   5.16459520288186     -2.86495039447725      0.00412832349793
  N   3.61544679514375     -1.31276008544566     -0.55843109507700
  C   6.15345692713096      1.88433042299091      0.18880408199492
  N   7.00306498674766      1.98425940827626      1.19129624506666
  C   6.96649806762500      3.39418714190031      1.58951053771960
  C   5.69649301876263      3.92320657600031      0.88804130017237
  C   4.40678408793375      3.41138910149285      1.58469444623523
  N   3.30349994881364      3.23113720827608      0.65313351159403
  C   3.30486442630080      2.41854828773465     -0.48022072266763
  O   2.62945238777925      2.76007366860329     -1.43162091474715
  N   5.72641340258483      3.16765127786897     -0.35685074132643
  H   6.76187501065897     -0.74185894452498      0.45605754428939
  H   2.98936690504163     -2.08817779952855     -0.70078954434345
  H   7.85149603393360      3.96108705088149      1.26362332101937
  H   6.91707771358014      3.46271305925425      2.68145430218752
  H   5.66825884675934      5.00150072449362      0.71655812325534
  H   4.07930654348084      4.10572611870143      2.35948600307737
  H   4.62281474043769      2.45866927764224      2.06982504127752
  H   2.84613415544753      4.09596508427175      0.39552621873326
  H   6.44860598409229      3.51444272260350     -0.98148912143979
