22
Coordinates from ORCA-job 5792optt
  Br  1.31067571026051      0.36514970508893      1.16178582322947
  C   3.01557381260774      0.10441384963992      0.40658832769641
  C   3.56689266918250     -1.11696110786752      0.11103676371974
  C   5.00582179583751     -1.10263316857081     -0.07525590991561
  C   5.71600313692463      0.07651453284602     -0.16141863742088
  C   5.09436325438944      1.34717557889897     -0.00673979767001
  O   5.60905835742895      2.46038230116795     -0.08417163206012
  N   3.73695415054019      1.25455085655183      0.32443294554319
  C   5.67527131809559     -2.36539599332155     -0.09052947894158
  C   4.98172052792414     -3.51763070234116      0.13031075336968
  Br  6.08458107462349     -5.08260524456645      0.32533986723273
  C   3.57162519324290     -3.59768699505350      0.21087162047397
  C   2.91357359737905     -4.86225095637428      0.47633424146327
  O   1.72426224663626     -5.03116867171097      0.70120695452803
  C   2.85300656926076     -2.37408572069650      0.00686131153129
  C   1.54974847816559     -2.42413343349676     -0.62698632624233
  O   0.97432275985170     -1.46775099931395     -1.13471040139587
  H   6.78684866438107      0.06748401972802     -0.30878585405426
  H   3.28967062822803      2.13327046855705      0.53918614477348
  H   6.75168952013518     -2.37959036448098     -0.18329999844031
  H   3.58230936796269     -5.73578602272014      0.48312888449888
  H   1.11402716694196     -3.42626193196407     -0.70418560191917
