24
Coordinates from ORCA-job 5797optt
  Br  1.39728404302219     -0.76292985795506      0.65291442181294
  C   3.21059212485995     -0.48864037006717      0.14724383310068
  C   3.89275084327339      0.69215864929283      0.22580690188682
  C   5.26611523390870      0.69850075868366     -0.30033729752215
  C   5.71981976297706     -0.45422427224896     -0.98078198328705
  C   5.00487474557231     -1.66082396121729     -1.04177583525411
  O   5.31823379351389     -2.74187287696757     -1.54388239198914
  N   3.73453216297215     -1.60465707454397     -0.39804983493281
  C   6.24395373184524      1.74977636802154     -0.19663172185068
  O   7.30426896994753      1.71520777014486     -0.85387465051966
  C   6.29578631433542      2.96082138919106      0.74772836514133
  O   5.26492020181524      3.31676582246943      1.67436375814970
  C   4.21263534647801      3.99284034507833      1.13610656462413
  N   3.78357851504568      5.07787295906581      1.61039034941148
  C   3.53466578096648      3.24642498450601      0.03070340565553
  C   3.15547405559734      1.89782781074182      0.65090356064879
  O   2.26025193699481      1.89247047154572      1.46542629434579
  H   6.70971077372912     -0.44193406616470     -1.40748501662423
  H   3.18257639652916     -2.44535410500160     -0.46352169724369
  H   6.52228689910747      3.82924268978149      0.12120961534661
  H   7.16899364217685      2.77805610043755      1.37171359097774
  H   4.38258971438418      5.35926001124739      2.38739838420263
  H   4.19026037698194      3.12810853269849     -0.83202268167345
  H   2.62184463396560      3.76810192126021     -0.24454593440723
