24
Coordinates from ORCA-job 5799optt
  Br  1.28139022144307      0.34756491545865      1.19238563385283
  C   2.96244932685127      0.01168741801670      0.37030978674480
  C   3.49905635038761     -1.24239081669448      0.15085407124598
  C   4.95246238189042     -1.26995229773078     -0.08364991393395
  C   5.65368358814986     -0.07565260483329     -0.26682884247526
  C   5.05431064377455      1.19794219333954     -0.15710221478389
  O   5.57265271185195      2.30836567937778     -0.30988009163822
  N   3.69642725066398      1.15848365090244      0.20384341118261
  N   5.63696726813633     -2.43204837424092     -0.10001821050834
  C   4.97110874184218     -3.57387579304123      0.07554509259198
  C   3.59521758877120     -3.66429238371161      0.18563807991340
  C   2.81961433024218     -2.50202184169422      0.16469856545589
  C   1.37685704905358     -2.64874326886690      0.00174061898140
  C   0.46579889141033     -3.53641495208498      0.55164783151586
  C   -0.75494460748761     -3.24169931681889     -0.07955240682659
  N   -0.63132162212104     -2.25882215375186     -0.95810241651653
  N   0.66429975319221     -1.93117212029512     -0.89791849220222
  H   6.71370479003471     -0.12047706559892     -0.46524134402014
  H   3.26212083249702      2.05743790850019      0.33926348431701
  H   5.57327745987750     -4.47787911224558      0.08759517059463
  H   3.11070219760380     -4.63182151370681      0.20920641745155
  H   0.66794782988783     -4.26605293803908      1.31648760708716
  H   -1.71995202015748     -3.70066615122049      0.07036203880092
  H   1.01816904220446     -1.16849906102012     -1.45128387683089
