24
Coordinates from ORCA-job 5807optt
  Br  1.05735994331445     -0.30573433359900      0.28554148983038
  C   2.94625525051346     -0.24420195067796      0.51179413867686
  C   3.72240243430693     -1.29893615956771      0.02668297189984
  C   3.47129455950382     -2.63766394154202     -0.25315032776967
  C   4.68235092888684     -3.24589956597999     -0.60835322465646
  C   5.72322873068438     -2.28854841544571     -0.56225847897285
  O   6.95060772729680     -2.38061868291076     -0.82965652287144
  N   5.10269691941545     -1.09353528569772     -0.15241991536945
  C   5.61556611949666      0.19623099523791      0.02429793194667
  C   7.09424780338881      0.44026719258804     -0.02657473489617
  N   7.67559755395026      0.09596126180710     -1.30821214419685
  C   8.24287013462122      0.98601116689759     -2.12686104415315
  O   8.37906361478585      2.17939376241918     -1.93766827465506
  C   8.75010901675283      0.30768683897498     -3.40905085668823
  O   9.32970209640966      0.89569147407177     -4.27237037455303
  C   4.76979941571248      1.19606419009711      0.28007754779136
  O   3.41858501215777      1.06035189594450      0.42483574670024
  H   2.49545389522590     -3.09291389506212     -0.19884466406331
  H   4.84299334221775     -4.26989510270476     -0.90104795555727
  H   7.58640849652669     -0.16437040083280      0.73920845457346
  H   7.28895684749716      1.49373450467511      0.16502045110843
  H   7.59632604215536     -0.91516235738172     -1.50043943591250
  H   8.54214276877515     -0.77828085364523     -3.48153972372452
  H   5.09798134640412      2.21636766233424      0.40498894551274
