27
Coordinates from ORCA-job 5810optt
  Br  1.05953613521817     -0.01874933542094      0.19287462704218
  C   2.97809023856402      0.00816486210035      0.01785056209197
  C   3.61015077307874     -1.18323363628344     -0.01438909403182
  C   3.11231236816934     -2.59463369356263      0.09219429778822
  C   4.32406062554215     -3.41875969878534     -0.34989563145844
  C   5.52192430475960     -2.46773051813151     -0.29404991143446
  O   6.67503119068507     -2.81047133270802     -0.41202981887861
  N   5.01603377413503     -1.19416692135683     -0.12841398180672
  C   5.74248485752821      0.05806569904842     -0.13755941358307
  O   6.97091679623547      0.06499280667393     -0.18967611625129
  C   4.90636855672508      1.20768932669340     -0.09006993745053
  C   5.60125550430986      2.53651193073729     -0.13598606073173
  C   6.09138348364160      2.90338935362620     -1.53974159398729
  C   4.92040143383337      2.96870104398396     -2.52672485333558
  C   5.33361784023482      3.42746528055599     -3.85091895978923
  N   5.67687149113758      3.80581909791015     -4.87846301487958
  N   3.55220506133130      1.20871079307788     -0.03364170695245
  H   2.22555517153771     -2.75625720063437     -0.51825244885202
  H   2.83902025197315     -2.82165496626444      1.12742509785783
  H   4.23626168793144     -3.75803050313158     -1.38468682623082
  H   4.52591077257474     -4.29142497826947      0.26747193180168
  H   6.47076487100683      2.51758772287881      0.52492153598440
  H   4.90219256054500      3.29600378877943      0.22194942021343
  H   6.80898361482610      2.15152879871082     -1.87182538278274
  H   6.60313458292365      3.86914577276285     -1.52302897378474
  H   4.14742888990360      3.64604185846534     -2.15608433492329
  H   4.45410316164823      1.98629464854373     -2.61924941163526
