23
Coordinates from ORCA-job 5811optt
  Br  0.91816304698128      0.12217756520116     -0.24473379849389
  C   2.76164842435090     -0.15743746445684      0.07321317951979
  C   3.60532124918331      0.87683855060544     -0.08074983874926
  C   3.35609969620308      2.30295463295069     -0.48866614715238
  C   4.67343119005628      3.02239972165376     -0.17329110136339
  C   5.67667233566124      1.92466086431475      0.13022812501267
  O   6.85551582265250      2.06072949658933      0.42606940432983
  N   4.97611472231033      0.72379101069055      0.13726346640071
  C   5.45701252545842     -0.55267519870429      0.39628168739851
  O   6.81923094296880     -0.70006707095219      0.41441063300495
  C   7.47704518881084     -0.32204116557165     -0.71854840865671
  N   7.01338798432336     -0.10557581656233     -1.87368508650131
  C   8.89709268496710     -0.20155835372927     -0.45541018898730
  N   10.02763591831160     -0.17106813723766     -0.26388586559459
  C   4.60808317890315     -1.61898487477710      0.56020406035180
  C   3.18959368191327     -1.51723968174687      0.45813993191998
  O   2.38693071890549     -2.45534249253062      0.62040961358992
  H   2.49370806176191      2.71143201481380      0.03472725708062
  H   3.12733613941642      2.33159204143640     -1.55705491457756
  H   4.59678121943940      3.65950427997555      0.71296213785790
  H   5.03434614508287      3.64673612836988     -0.98952477296277
  H   6.00937525387624     -0.28214791584282     -1.90407188419851
  H   5.04147386846205     -2.59167813448969      0.74671251077098
