23
Coordinates from ORCA-job 5812optt
  Br  3.99449567562513      0.34924325427128     -2.48693155344755
  C   5.28777833832231     -0.50037569912819     -1.20523374061325
  C   4.76944676315896     -1.46597815773830     -0.35940660863982
  C   3.92025406805167     -2.57254476298150     -0.49308696635771
  C   3.78089211424525     -3.19057116373250      0.74028295092732
  C   4.50905825550058     -2.46463557692062      1.74080344307246
  O   4.63931709558988     -2.61280459884968      2.94494508289485
  N   5.14360832263653     -1.40426399729488      0.99832075489059
  N   5.45740896580678     -0.23465354203954      1.56492937959794
  C   5.93432678446535      0.67660971832930      0.80355116086153
  N   6.17910099346429      0.41706291216065     -0.58862464383208
  C   7.18578458952515      0.89384349776022     -1.42230041401662
  C   8.07741326446682      1.90234052136920     -1.25028550516992
  C   7.95605355336552      2.60697929437147      0.01452460689090
  C   6.68370737961898      2.89211870246528      0.36251476352472
  C   6.24493227710218      2.02453930799468      1.48103843770724
  O   6.26088988166520      2.17572030405209      2.66717636099413
  H   3.48716507814193     -2.87972309510996     -1.43220955572222
  H   3.21401868073810     -4.07777387746590      0.96876942804985
  H   7.21825699700401      0.29829856040649     -2.32803103216292
  H   8.88564390544017      2.00827848378272     -1.96180257121795
  H   8.72753048410233      2.50893808943498      0.77632495667263
  H   5.97591653196274      2.91835182486271     -0.46226873490414
