25
Coordinates from ORCA-job 5813optt
  Br  0.87545859318680     -0.07567969697372     -0.22858264342069
  C   2.75921437187414     -0.09692685271724     -0.09837257137057
  C   3.41643546986131      1.05631054583318     -0.00316407580988
  C   2.90462344974580      2.46277484278133      0.04328968145594
  C   4.18524364488754      3.32025968685008     -0.06511321991025
  C   5.33982583874534      2.33402804554002      0.07979122432530
  O   6.51519465333834      2.63634965362750      0.14047635717880
  N   4.80731777862464      1.07498871010524      0.08088040940066
  N   5.58235906042379     -0.05603835903461      0.10643367169360
  C   4.88603643089768     -1.20006555796566      0.02245476184259
  C   3.48336033837996     -1.37563167660868     -0.08891048989690
  N   2.79232829676183     -2.49549623935039     -0.16938842908241
  C   3.59174136090367     -3.68760905025591     -0.13146514564533
  C   2.76658115008853     -4.90050103173997     -0.18457657366429
  C   2.11503765380028     -5.90710630137470     -0.22596240146415
  C   2.19839667633615      2.81091017975569      1.33719151953348
  O   2.26370273304866      2.19663635793333      2.36089791547361
  H   2.20655031106386      2.65708442448621     -0.77277779953994
  H   4.26401298649225      4.08745360284652      0.70734182918733
  H   4.27252114003113      3.81790831816451     -1.03211986076781
  H   5.52491792410844     -2.07319151343243      0.04340979150927
  H   4.20864061660784     -3.74580611449896      0.78303446837760
  H   4.31114660841828     -3.73584761293516     -0.96876374371672
  H   1.51990312102064     -6.78645014105801     -0.26000550606293
  H   1.62944979135305      3.76364578002183      1.28900083037367
