22
Coordinates from ORCA-job 5817optt
  Br  1.11894804716516     -0.27679720899833     -0.04296835302090
  C   2.98187331270699     -0.07034587154780     -0.06571462438720
  C   3.62882384036074      1.15699685807453     -0.07012560463943
  C   3.03560607508819      2.42858037711214     -0.06884692319199
  C   3.75921961161392      3.61191138222292     -0.07122185269434
  C   3.11293503726816      4.88144415008921     -0.07157613535353
  O   3.64528149571254      5.98878022175130     -0.07342352758641
  N   5.15500549651577      3.51003329972112     -0.07360679852404
  C   6.12409391919148      4.46233774684744     -0.07347848284642
  N   7.33310879175558      3.92585883059176     -0.07583680555924
  C   7.15210857824896      2.58433581812227     -0.07773830441367
  C   5.80457902492702      2.28270435359919     -0.07642611416626
  C   5.06939942570509      1.05203126411326     -0.07655733702273
  N   5.72144281010054     -0.08475611329659     -0.08156984899422
  C   5.02733034311935     -1.26528019943106     -0.08205857648885
  N   5.53517238714705     -2.42886199942899     -0.09185320217356
  O   3.63899633475534     -1.25397111226096     -0.07040656047057
  H   1.95583624438349      2.50790840390704     -0.06642561570208
  H   2.00987605430107      4.79498231250031     -0.06990117387923
  H   5.87849453089160      5.50866433503580     -0.07165108591456
  H   7.96964563794796      1.88355433390807     -0.07957709098086
  H   6.54422300109396     -2.31011118263265     -0.09903598198991
