22
Coordinates from ORCA-job 5818optt
  Br  1.05898056753022     -0.32086560613239      0.06186462723465
  C   2.93580533772525     -0.09572420900677     -0.01654929962158
  C   3.52094659984316      1.15361679163299     -0.04938909879747
  C   2.84799134343378      2.38410512102707     -0.05086545212894
  C   3.47210990776306      3.63816852905058     -0.07750625516990
  C   2.65532282856542      4.79552360172537     -0.11946158240967
  O   2.96378718230455      5.99882850165872     -0.17965687658913
  N   4.89394329682759      3.64392080996376     -0.08447776163273
  C   5.84852476991863      4.66989611283622     -0.04406373891064
  N   5.77751065508387      5.93714447885690     -0.00149206348820
  C   7.11231701248941      3.91324842910327     -0.05588382170028
  N   6.95455667979986      2.63922686177084     -0.08659426843035
  C   5.58098135428830      2.42733264711700     -0.09338190246448
  C   4.98493885404751      1.20665381882880     -0.08491263686656
  C   5.78936579663749      0.00848494884777     -0.10162789814903
  N   5.37789201298422     -1.21165861873610     -0.08683861782190
  S   3.77807658413345     -1.61132603818718     -0.03685388814381
  H   1.76746997883902      2.38503266997877     -0.04241883794364
  H   1.58557870319793      4.52443864946049     -0.09842559709220
  H   4.79791426646833      6.23903650833848     -0.01980989220309
  H   8.08062720571435      4.39550051008938     -0.03649682512978
  H   6.86535906240453      0.14841548177598     -0.13315831254127
