25
Coordinates from ORCA-job 5829optt
  Br  3.06957704420357     -0.46302869412614      3.05621669775682
  C   2.77036009522421      0.41454933196528      1.35229576809110
  C   3.57207286856474      1.46318150414636      0.78622839627331
  C   2.89331671256221      2.76356226953948      0.77651501668908
  C   2.54771602303457      3.34693521085124     -0.38327465322681
  C   1.33418175779265      4.18961332366659     -0.53545210969628
  O   1.20955244071288      5.36635844429733     -0.27303524108455
  N   0.23611780942203      3.46839476878880     -1.06225576480491
  C   0.07315721091381      2.10613417657035     -0.71019162544132
  C   0.67477955111293      1.03748085768453     -1.25150317873410
  C   0.84699230341761      0.02573215640097     -0.17310432011520
  C   -0.19272823372655      0.41737205511554      0.84714210356154
  N   -0.47898243333456      1.85504417167673      0.57774277516931
  C   2.15289221450123     -0.21686406167356      0.19404241916009
  N   3.11204765161014     -0.62931110622544     -0.71318137788574
  N   4.24737497621113      0.13684139458982     -0.98251585588698
  N   4.36603610635163      1.19008170070716     -0.30509379861582
  H   2.43176652250557      3.08987759186750      1.70565782949960
  H   2.89802514726043      2.88670194533671     -1.29999676989503
  H   -0.60130456964194      4.03676887562419     -1.00249293761875
  H   1.20742022616834      1.06518607695423     -2.19116929101550
  H   0.13858386340247      0.26882606948288      1.87575902859174
  H   -1.12385799123102     -0.13952229877118      0.70130037486513
  H   -0.03153664553273      2.46590854089434      1.25968239423617
  H   2.78343934849460     -1.08382430536375     -1.55331587987291
