22
Coordinates from ORCA-job 5832opt
  Br  1.10843274338607     -0.99952107258047     -0.70920662283268
  C   2.86731254750949     -0.44367435165745     -0.27158809675452
  C   3.15134321192840      0.92816986991096     -0.07059051647256
  C   2.13187050510329      1.88013348790551      0.00007950344181
  C   2.09857503272246      3.24842597076021      0.20403422005011
  C   3.18138253536229      4.16424362261456      0.27697397142626
  O   3.03079817050043      5.36009066392236      0.51149297266186
  N   4.50696241873945      3.72841190865363      0.04601848660496
  C   5.03747559732882      2.58241012325629     -0.00339427984209
  N   6.42165027356871      2.64473759134493     -0.22212801536346
  N   7.33710737409379      1.73173565041145      0.16892277181627
  C   6.86898933721356      0.57151722985518      0.40696414635190
  C   5.47217929610196      0.22358802060685      0.24503046762445
  C   5.12678988752594     -1.07371040715548      0.20366016480038
  C   3.78080521178540     -1.52433785385977     -0.12175015849009
  O   3.52583947631455     -2.72788053493195     -0.25202473503893
  N   4.54344080069706      1.26346839195015      0.09296426209069
  H   1.15543704054247      1.43022196015703     -0.08669597321461
  H   1.12492234194843      3.70854000964778      0.31167585704995
  H   6.74508379526122      3.59849409398567     -0.19503410981014
  H   7.56320516408242     -0.20852187968147      0.68857263135191
  H   5.88739723828335     -1.82954249511614      0.34702305254853
