24
Coordinates from ORCA-job 5834optt
  Br  0.99368040535472     -1.28138228654114      1.30167943584057
  C   2.62666788300418     -0.67275331916520      0.56597319856412
  C   2.77789230360623      0.66048810587849      0.29454345874689
  C   1.86586889170806      1.76656986607695      0.56812627535286
  C   1.69437346996359      2.66248453985323     -0.42561380778789
  C   2.33289956299489      3.97862242832632     -0.17842046881061
  O   1.90596597473389      5.10675531445002     -0.03275547808475
  N   3.70234692692818      3.70966252725878     -0.14994521572878
  C   4.42619194722960      2.51976806251467     -0.33709873991698
  C   4.04071805169849      1.17925053954709     -0.19246387007649
  C   5.00210773000928      0.13600707977431     -0.42394111233440
  O   6.21581228628046      0.58272587343688     -0.93719505716170
  C   7.24363173343096     -0.27964456390569     -1.10831512731606
  N   8.36313826956335      0.08264502136309     -1.55750933373805
  N   4.84747453800875     -1.11658282857575     -0.22052612410580
  C   3.66431214806737     -1.63740332879367      0.31573545818196
  N   3.52768716309506     -2.90349572363371      0.55639618947416
  H   1.71009670760061      2.05454415197174      1.60554998708217
  H   1.88161094200477      2.30890066989556     -1.43715943520723
  H   4.26105709527240      4.55125478919507     -0.18125128775907
  H   5.44749731250784      2.70993273210250     -0.62394960717466
  H   7.02638652691459     -1.30351665031319     -0.82848779143626
  H   8.35083987843354      1.08323268650679     -1.76124937211799
  H   4.39474225158916     -3.36306568722315      0.28587782551402
