22
Coordinates from ORCA-job 5835optt
  Br  1.20567320908041     -1.43395486429476      1.97248645053394
  C   2.47755117774934     -0.63453190861106      0.82076471128927
  C   2.47420517116393      0.72405047331059      0.64043792674414
  C   1.72607533160633      1.79254010552990      1.31627102848991
  C   1.09781668364697      2.66294801307934      0.48275244542563
  C   0.15327593496497      2.13164384819048     -0.51710000295249
  O   -0.53042932400891      2.79227412635627     -1.26027642698258
  N   1.57168222773526      3.96713756337074      0.37514664128704
  C   2.82507655598580      3.87571014806755     -0.00353067564884
  C   3.62094715164842      2.72216025418936     -0.36743185642447
  C   3.45047847684221      1.33645886381958     -0.21253074651600
  C   4.43612892464920      0.44502061917654     -0.88909933709253
  O   5.29732699222596      0.89720780541824     -1.63455150144873
  N   4.35964936511865     -0.91763241111787     -0.66126716070528
  C   3.44518621146133     -1.41845678085822      0.13653194816613
  C   3.46081112867824     -2.84775256064523      0.31964882151532
  C   3.47688030665938     -4.03767224041967      0.47028440905474
  H   2.24578619385783      2.22788202084682      2.16793168179950
  H   0.08262697936501      1.02615352803402     -0.49722829111506
  H   3.32301247601035      4.82957485568997     -0.17061195141563
  H   4.52230505326055      2.97390329858680     -0.91440142446967
  H   3.49193377229873     -5.09166475771941      0.60377331046565
