30
Coordinates from ORCA-job 5840optt
  Br  0.98440517788840      0.02938235271398     -0.31110007625013
  C   2.89258045435878     -0.11133063834321     -0.13465860762385
  C   3.48404593107578     -1.32837616868456      0.30980359757848
  C   2.79477195502876     -2.63689450169815      0.42852055662971
  C   3.08358421024027     -3.66324558954609     -0.73891405668349
  C   1.99853996587517     -4.68565741129484     -0.64390440116068
  O   1.05621223150795     -4.78635573430800     -1.40164472285836
  N   4.37616919795060     -4.33947355711970     -0.57682296249875
  C   4.59209969813609     -5.37596345278005     -1.57771552949192
  C   4.87424594713360     -4.86579103511543     -2.97740311705501
  O   5.63946639376904     -5.39381021803183     -3.74118978226936
  C   5.58409773543229     -3.50491784124372     -0.50366516271275
  C   5.66682824180964     -2.51617729480363      0.66040077062988
  C   4.90858110629189     -1.25334101746992      0.38239758502879
  C   5.56498545534199     -0.08333865330271      0.10037771090906
  N   4.97490565265520      1.08563840759403     -0.27269410382815
  C   3.62735845741654      1.01694053321678     -0.38592633302161
  H   1.71594750823528     -2.48143990347442      0.44677068112226
  H   3.07001327564478     -3.16386925685160      1.34740855007473
  H   2.98062246126221     -3.12112035057630     -1.68737743145882
  H   2.07070588701797     -5.32893022378089      0.25784443519830
  H   3.70400792717805     -6.01252985751637     -1.65166367102956
  H   5.42972370287628     -6.01318857869990     -1.28427082975242
  H   4.31676878389552     -3.96080423782725     -3.28267929356221
  H   5.73449853335316     -2.93241717198038     -1.43384307113554
  H   6.41698253940606     -4.21081491268242     -0.42643189266270
  H   6.72115888017293     -2.26963573270348      0.80867496303894
  H   5.31680833849335     -3.01425091547306      1.57085282978527
  H   6.65047026328101     -0.06166897590660      0.17586618552989
  H   3.11541408727131      1.92638193768985     -0.68301282046998
