22
Coordinates from ORCA-job 5842optt
  Br  1.23170310941461     -0.40753383114084      0.33957376649932
  C   3.09808333883524     -0.15319242342366      0.27343996216341
  C   3.63002135245442      1.15265696845701      0.13037297879661
  C   2.90207696576311      2.31827754553597      0.02366767634102
  C   3.54951838166176      3.56052248314725     -0.10461622798973
  C   2.83921706914277      4.79354251066036     -0.21259830343961
  O   1.61047826837325      4.91245757525375     -0.21024826657182
  N   4.93276837258440      3.61970161718148     -0.12752110832871
  C   5.59084167980285      2.53158533844858     -0.03318789036277
  N   5.03168283807165      1.25753707233938      0.09878223223766
  C   5.94434916645734      0.15627160654102      0.20005878845985
  O   7.15048397205137      0.37693480933186      0.16243054065409
  C   5.33010812088543     -1.11167849646789      0.34027456103707
  C   3.95579875311582     -1.22411532052583      0.37173257384318
  O   3.42630286138095     -2.49846836423656      0.58050706772008
  C   3.03585270169690     -3.20459682067261     -0.48919865524017
  O   3.13677412728367     -2.88559624230011     -1.63127992050774
  H   1.82361109322049      2.28931783484448      0.03903935553133
  H   3.49577239729310      5.67808808173796     -0.30059303609712
  H   6.67084172229210      2.51931786459519     -0.04772444144273
  H   5.96100478766774     -1.98209061757965      0.41924963152951
  H   2.60970892055087     -4.15293919172717     -0.13816128483274
