25
Coordinates from ORCA-job 5850optt
  Br  3.76463917218285      0.22615721311986      2.71663775895956
  C   3.22890560176492     -0.36454056750239      1.00204544490692
  C   2.22617417828223     -1.31082716545941      0.82296681344000
  C   1.41959777854931     -1.81377939013259      1.87095852117837
  C   0.20125353289778     -2.42950273280946      1.63305485525778
  C   -0.24010620141073     -3.57672148563644      2.36590263515547
  O   0.16343777757990     -3.96254697343645      3.45566007120825
  N   -1.23586239055363     -4.35544565851040      1.67603529325500
  C   -1.06648626056750     -4.69317896631322      0.46786615944191
  N   0.01497296291788     -4.57250149536304     -0.39230396325373
  C   1.31866830776719     -4.01761375455702     -0.12522957559290
  N   2.16515109891722     -4.57681107943305      0.63682990652574
  N   1.60252434561800     -2.95749734104648     -0.95463841741714
  C   2.12237635165910     -1.82627045840723     -0.58028096384621
  C   2.67393105652727     -0.98378701073456     -1.60835344988920
  C   3.55306226986873      0.01331315683640     -1.31079950923797
  N   3.87595899259111      0.27068524875422     -0.02235707585678
  H   1.83134744165532     -1.83986154125394      2.87373508089771
  H   -0.28152272821995     -2.25914139013219      0.68024410606838
  H   -1.89684798958136     -5.18957269850358     -0.04000427497330
  H   -0.24683478200220     -4.47617230508178     -1.36242353392074
  H   1.75367720238568     -5.39707055711215      1.07744765037761
  H   2.49523637918405     -1.25954820024606     -2.63748737039703
  H   4.06459629507312      0.60476794116796     -2.05587176545637
  H   4.56314960691369      0.96746721179304      0.20636560316864
