28
Coordinates from ORCA-job 5853optt
  Br  0.98158049153065     -0.09163061613844     -0.26779497982830
  C   2.89119853650818      0.00067212252310     -0.11128423018733
  C   3.55770285973609      1.21999436339883     -0.15651123101769
  C   2.88227913837403      2.55520000208715     -0.25966275729578
  C   3.60055902604225      3.52495607219023      0.66622141552365
  C   5.07610263019066      3.60230342674331      0.35515790136924
  O   5.71462033805982      4.63190037007200      0.52952861963825
  N   5.67333213247472      2.43884746689957     -0.09523722731511
  C   7.05645037641893      2.44126772161664     -0.42099044829159
  O   7.55701168126402      1.57267455752525     -1.17391788343774
  C   4.95985620779646      1.21958886912332     -0.04911465627726
  C   5.66935473180643      0.01791691422412      0.13686853419808
  C   4.95160170243297     -1.16332291069034      0.16293940295897
  C   3.57497875240130     -1.19873536103873      0.02524135823615
  C   3.08951207632916     -2.62031444916728      0.13637651807253
  N   4.30758842393267     -3.44415173043666     -0.00015983576772
  C   5.44174955492946     -2.57608924899385      0.37692041363262
  H   1.82824375664522      2.47692920540975      0.00169045311480
  H   2.94295795737752      2.92247778919319     -1.28988644178915
  H   3.46541091282359      3.20554550940970      1.70775250134011
  H   3.21386333178188      4.53971236258464      0.58081102128534
  H   7.55361619205655      3.34239123456010     -0.07404160420941
  H   6.74622258206767      0.03858964896472      0.19033884318922
  H   2.35184785042139     -2.89377194631634     -0.61961802163222
  H   2.62676587426991     -2.79571675465057      1.11516780635661
  H   4.41107310827498     -3.65680620396267     -0.98505169988095
  H   6.32772900355591     -2.82178224126136     -0.20936092571468
  H   5.69079077049746     -2.73464617386941      1.43161715372935
