27
Coordinates from ORCA-job 5854optt
  Br  1.14344537522734      0.10372288168862      0.53504466233466
  C   2.96015232490861     -0.03655036614178      0.00327526257232
  C   3.63793842577627     -1.25625823641790     -0.00173254561297
  C   3.13855750186188     -2.66180765033568      0.18064951365166
  C   2.03493993397101     -3.02007470640049     -0.81120778149619
  C   1.45628974096426     -4.39379540705023     -0.61721656948257
  O   1.82982077226945     -5.21125829419194      0.18481395672659
  N   0.38405590612011     -4.67770556606927     -1.48173921940567
  C   -0.30508386050477     -5.86299514985690     -1.47740685680336
  O   -1.24369569534585     -6.08982106209578     -2.19939617558276
  C   4.41248847401422     -3.52102120483919     -0.01604347891128
  C   5.61340995640106     -2.58307383836278      0.19362114005341
  C   5.03184756405109     -1.22006583008811     -0.07561088249483
  N   5.78678553173947     -0.16631025519790     -0.24823684466708
  O   5.04086784645774      1.02720080513741     -0.48193181273817
  C   3.69719250014674      1.16960308449987     -0.17519485407574
  N   3.21777855174052      2.35903231714745     -0.12648449054320
  H   2.72961612549188     -2.80712532271746      1.18929638689587
  H   2.42249137922467     -2.95365585168579     -1.83513034614799
  H   1.21528382825986     -2.29850323562030     -0.74771485543999
  H   0.06917427352355     -3.96459564276981     -2.12468821403469
  H   0.09392148411281     -6.57569287797807     -0.74635176726538
  H   4.42397195461000     -3.89650101983882     -1.04338890930049
  H   4.42171300278035     -4.38896591939144      0.64143158676710
  H   6.45680285558691     -2.81863118446790     -0.45738290746143
  H   5.97649711881996     -2.62823825013243      1.22510352550441
  H   3.97773712779077      3.01608778317671     -0.28937752304221
