23
Coordinates from ORCA-job 5856optt
  Br  2.98725851794779      1.42650219901121      1.95745663263765
  C   3.22857315136083      0.25243951111118      0.48570012248747
  C   2.37695471187380     -0.85780873004767      0.33666790711664
  C   1.41434915706784     -1.25160127042590      1.29915640374075
  C   0.19246727740576     -1.83312131560658      1.01518456523933
  C   -0.63544642419227     -1.42902898922754     -0.08840636659041
  O   -1.74517463547013     -1.87058138316577     -0.34713736678324
  N   -0.26068246404406     -2.85564192983096      1.89619286564677
  C   0.46050585877065     -3.88939387481937      1.83814782047373
  O   1.50588761461317     -4.11170661941208      0.98694333876890
  C   1.33184554149623     -3.72233911337256     -0.37632482300941
  N   0.37147704276576     -4.15332570170403     -1.06755400652751
  N   2.36372934119454     -3.02385321709804     -0.92337397303810
  C   2.75031009754025     -1.82853197894187     -0.69936633245797
  O   3.76435694235437     -1.47540284414373     -1.55923743024408
  C   4.51001770352751     -0.35221964914171     -1.40064052347007
  C   4.29690805011714      0.51186887402128     -0.38804293679561
  H   1.70978504153732     -1.20269411882555      2.34687030362151
  H   -0.19256861705572     -0.61198357599318     -0.68808290776822
  H   0.30674220173533     -4.72474028886682      2.51556891902519
  H   -0.30933781423711     -4.64813906419774     -0.49679558671232
  H   5.27438048285747     -0.26006607291270     -2.15553936011513
  H   4.92366122083350      1.38336915359015     -0.27538726524588
