22
Coordinates from ORCA-job 5859optt
  Br  3.52512369043552     -0.06556770485931      1.91085325146896
  C   3.17229129915490      0.73340308469999      0.22918824653628
  C   2.15691920557374      1.69336803499368      0.08237802719294
  C   1.25224473121226      2.09838972885432      1.09063931604883
  C   0.02590160686941      2.62845533688455      0.81700940999662
  C   -0.65045463839728      3.52507255263727      1.71984540261850
  O   -0.38084905189879      3.73092309061313      2.88715054257690
  N   -1.74445577262743      4.23486989254029      1.12908723348481
  C   -1.71090249853882      4.77090807074604     -0.00822243094188
  S   -0.53281836837420      4.96458319844303     -1.32136133901166
  C   1.17172894538048      4.46176800930519     -0.78801730316476
  N   1.83536420012035      5.15136481243358      0.03392705777467
  N   1.65467651511334      3.46917184910693     -1.57560544103908
  C   2.16272569238293      2.34543032503740     -1.22360431486742
  O   2.80601887456578      1.73405869314292     -2.25690737148867
  N   3.70001265657641      0.67106059612145     -2.10356123085366
  C   3.88284800311515      0.27222103299632     -0.87156504190023
  H   1.57301670565256      2.03894906787068      2.12614989212111
  H   -0.36673392475296      2.55425511282036     -0.18705063234032
  H   -2.62977110690466      5.23222864361528     -0.37922760623024
  H   1.28404267741999      5.91630942960360      0.41223144207973
  H   4.62507055792129     -0.50922285760672     -0.76833711006145
