23
Coordinates from ORCA-job 5863optt
  Br  0.91446306383866      0.04644983085544      1.35287693410197
  C   2.59196603081020      0.00534455909763      0.49785437294206
  C   3.36058232206573      1.09966871608004      0.22437063779071
  C   4.47063276503188      0.94730127331449     -0.62737762323387
  C   4.76809925675291     -0.27693127735236     -1.20650722774302
  C   3.97424560197007     -1.41859140006656     -0.90445479963437
  O   4.09894175979818     -2.55011757579163     -1.31285826381453
  O   2.88920506325506     -1.22370692719060     -0.01107495352723
  C   5.19750366272613      2.25734117056058     -0.76168176547609
  C   4.52072134259028      3.20104239267868     -1.79496204897347
  C   3.50766516004308      4.09951177920643     -1.07874326696272
  O   2.63939961269300      3.39297347431906     -0.20434746150825
  C   3.33086298187245      2.51760931594181      0.70976592772305
  C   2.80188814319502      2.75780998961011      2.05566916980449
  N   2.42994886736363      2.98448715962853      3.11509648927791
  C   4.86308698112847      2.76806468957458      0.62790338664675
  O   5.57576380153671      3.23964918977928      1.47637898336589
  H   5.59203384798989     -0.42385945751835     -1.88823950718060
  H   6.27122569576945      2.15517538215783     -0.91670578098945
  H   4.02738269987027      2.59752591332867     -2.55824719960100
  H   5.25573026430300      3.84465178836346     -2.28569149670826
  H   2.85612459973486      4.60854277825946     -1.78805139554823
  H   4.04952647566103      4.86505723516336     -0.50897311075174
