21
Coordinates from ORCA-job 5869optt
  Br  1.22759748230842      0.48920371163232     -0.35172559394607
  C   3.04790076443083      0.07378756237237     -0.03563231827756
  C   3.61292123661732     -1.17689053891824     -0.12441340222879
  C   5.08225506624830     -1.21073781418556     -0.06264012384882
  C   5.77153204892298     -0.02549015332691      0.18109241410302
  C   5.13941950331402      1.21817031948095      0.35615957384402
  O   5.60938119756073      2.30592860695102      0.59898939792293
  O   3.72530821102105      1.20068318792165      0.21158305917645
  N   5.77751011598576     -2.34887139371628     -0.24492921895047
  C   5.11818604708956     -3.48393038315626     -0.46782079946877
  C   3.73509074654099     -3.58789695111996     -0.47651294597810
  C   2.98171906878833     -2.44270960652995     -0.28023952122384
  N   1.57022027758331     -2.60211228229250     -0.15265307578230
  C   0.81037994101344     -2.45950389868535      0.93891418423571
  N   -0.42641606352462     -2.76453533911801      0.64185690077055
  N   -0.40787685801720     -3.10215327127665     -0.66329516218683
  N   0.77402150710659     -3.00850058460529     -1.14788520057033
  H   6.84837839934325     -0.04751334086646      0.23772195048613
  H   5.72534426201401     -4.36866139800944     -0.62869781429542
  H   3.24056578549166     -4.53979894241282     -0.61195796641027
  H   1.19256126016113     -2.12646749013859      1.88808566262875
