23
Coordinates from ORCA-job 5872optt
  Br  0.92124297779716      0.00333427590140     -0.08085568547429
  C   2.82768523797499     -0.00028807298327     -0.08011601483627
  C   3.49105854451760      1.23728497309547     -0.07991102994047
  C   2.89319417430517      2.51159144755701     -0.07995465223816
  C   3.63543317299171      3.66219642397702     -0.07972171955242
  C   5.06846366302008      3.62508065213970     -0.07946803768416
  O   5.82296968153923      4.57260129991047     -0.07924415251837
  O   5.64356247468332      2.37478681099218     -0.07944960423768
  C   4.93286448081711      1.20545426848203     -0.07957612673333
  C   5.63342704227832      0.05163282489783     -0.07939209928648
  C   4.94529497274635     -1.20894542975173     -0.07950964360286
  C   5.60470074083374     -2.38608423495901     -0.07931068085830
  O   5.00686838736288     -3.59982655461704     -0.07936765180691
  C   3.62154035077355     -3.71039254353062     -0.07952546013224
  N   3.10990661834998     -4.88489620887627     -0.07949802582347
  C   2.87839125633754     -2.49408579431094     -0.07983802769302
  C   3.48040785990662     -1.24682496302023     -0.07984017165572
  H   1.81277937734413      2.57461977650655     -0.08014741889218
  H   3.18239693834282      4.64174625596990     -0.07970630714822
  H   6.71515982112824      0.08305583917756     -0.07915374229036
  H   6.68316829635300     -2.46467674893865     -0.07908533627326
  H   3.85341533942457     -5.57870727653123     -0.07929530111082
  H   1.80606859117185     -2.60365702108813     -0.08003311021101
