27
Coordinates from ORCA-job 5880optt
  Br  1.22332680099504      0.42902550933128     -0.45207818297264
  C   3.11212056887361      0.06055794246966     -0.31100474744092
  C   3.60172242196926     -1.25304477243480     -0.50534785214003
  C   2.74031881670511     -2.35945637031148     -1.06963822152562
  C   2.88151620781630     -3.75460128057477     -0.42506161418290
  C   3.05210527979112     -3.63698536012578      1.06116866016133
  O   2.14686756194037     -3.57123519346426      1.83882871746251
  O   4.31852157263575     -3.62382758524177      1.58058306515248
  C   5.49782351086099     -3.65584156293129      0.85622502163405
  N   6.44592329027076     -4.36183599568978      1.29332631089279
  C   5.65870613900604     -2.77425287984965     -0.35585880488674
  C   5.00383729821002     -1.41573951138624     -0.26812844549030
  C   5.80044232677784     -0.32691962823473      0.02706886972098
  C   5.28427767571891      0.96449832833120      0.14304035490249
  C   3.90493847794390      1.13900537521656     -0.00051711928249
  C   3.10215281531587     -2.36293813447494     -2.53662206807748
  O   4.05610389982974     -3.00897281348923     -3.01330223429241
  H   1.70299782048315     -2.05314923140454     -0.96393232916401
  H   3.68620426341663     -4.31395875114506     -0.89524845301175
  H   1.95122776454873     -4.29669879737224     -0.58669030727640
  H   6.13647790304653     -4.87538499560270      2.11861955617459
  H   5.30893121425177     -3.29432378131867     -1.24876431677059
  H   6.73445892108605     -2.65511000426168     -0.47026200788739
  H   6.86131691737909     -0.49463360749082      0.18223330259303
  H   5.92645853715466      1.80648404723211      0.36163291536080
  H   3.45192092321383      2.11166696087944      0.13926401971599
  H   2.59130107075879     -1.58232790665571     -3.12353408936938
