23
Coordinates from ORCA-job 5881optt
  Br  2.40088353392622     -1.50042197386850      2.20894585190825
  C   3.20685068725714     -0.36651625452464      0.95088138223473
  C   2.86055771413610      0.94890774441754      0.80864997101788
  C   1.82087474290162      1.68598899304813      1.46219244755760
  C   1.26275078867364      2.66502297773639      0.62096925894455
  C   1.23701360515492      4.07321189292894      0.82786155324253
  O   0.95119607918797      4.78412032945551      1.75141003944582
  O   1.74183033382126      4.71787770991630     -0.37168572139595
  C   2.70989191869288      4.01861345006635     -1.01513010376291
  N   2.90750139104730      4.06441704613665     -2.26072287756681
  C   3.63969781493648      3.20108352091062     -0.13704421128518
  N   4.43205434750199      3.86016133073598      0.60049432639556
  C   3.68030249517334      1.68808521875628     -0.16002410134783
  C   4.61511031699020      1.06097117771596     -0.89753662043017
  C   4.85102382875953     -0.36905505965953     -0.76544838640705
  N   5.63073218847014     -1.10327935257851     -1.44854676098892
  O   4.19619349448316     -0.99516145346364      0.26198310945189
  H   1.63022114884356      1.58066084665015      2.52198949964030
  H   1.27913674248536      2.40070811777355     -0.42941663329483
  H   2.19958898663349      4.65494923947930     -2.69753529636664
  H   5.02064436137299      3.22553311099977      1.14209727334312
  H   5.25253694094531      1.60803641824051     -1.57956945782595
  H   6.07640653860533     -0.53491503087313     -2.16281454251001
