23
Coordinates from ORCA-job 5882optt
  Br  3.83985313660209     -0.30150340734204     -2.67439089705749
  C   2.95879467314083      0.35740564456196     -1.14268020833201
  C   1.94167565032409      1.27695964438786     -1.17903760683004
  C   1.41954146195388      2.04167793111889     -2.26277826318016
  C   0.31470218187431      2.89549172245702     -1.93114881480770
  C   0.59500838763427      4.24552993531984     -1.69542629085008
  O   1.14623535876306      5.16873277444452     -2.21609959549686
  O   0.17041318172335      4.48164498147796     -0.18107204863705
  C   1.24871112321536      4.71342299017957      0.53700375463715
  N   1.59950020825350      4.16489472423344      1.62676526050825
  C   1.09266671610842      3.14326721822337      2.38604409995829
  N   1.37932075844039      1.89704781185701      2.34212154239129
  C   1.98162887964892      1.39758744736645      1.18770195433962
  N   1.43614605581402      1.64587474875157      0.06585660039655
  C   3.18313909132887      0.52868634726593      1.30097943712686
  N   3.77686514901939      0.30711904450635      2.41305621764340
  N   3.53426774319081      0.00091086204248      0.07355538930731
  H   2.02895062464804      2.16187860873319     -3.15025218470350
  H   -0.29369207641264      2.49923090588432     -1.13607081735779
  H   1.92249505059079      5.46573232451625      0.12258406684470
  H   0.50486433971135      3.47337694889678      3.24392779541786
  H   4.59074808305192     -0.29301401052592      2.28250526520271
  H   4.29516422137493     -0.65895519835682      0.05385534347864
