22
Coordinates from ORCA-job 5883optt
  Br  2.33636557110315     -0.83928749195166      1.57016375871168
  C   2.60783418204662      0.28466476106927      0.03141321963873
  C   2.34360386584663      1.60326174652456      0.01069432803677
  C   1.62857435541281      2.37787014217708      1.01171946307171
  C   0.39817043424410      2.12879275470523      1.45788381259029
  C   -0.50985041562892      3.17715847793734      1.95565833505852
  O   -1.46012364258689      2.99230702046208      2.65716647823174
  O   -0.27631218839780      4.47946334667379      1.53315129193628
  C   0.43395860209978      4.79145394922429      0.39699706479621
  N   0.44652619428479      4.09479804782682     -0.63367184825865
  C   1.45937279928368      4.44313488234387     -1.60539957171309
  O   1.31504566881196      5.46271979029292     -2.28190965279178
  C   2.57484254660190      3.56428706439278     -1.70576850677904
  C   2.93144622498892      2.33166989676625     -1.12537277907061
  N   4.13308594455711      1.80365694837408     -1.56480657804217
  N   4.42827728266759      0.59719851147309     -1.46816816567258
  N   3.32118150945700     -0.25401269164790     -1.01608183448345
  H   2.08042820383031      3.34128451073619      1.21739563344900
  H   -0.09283298363895      1.18555138597939      1.25657323541047
  H   1.00988886063153      5.70488413819238      0.55694367658835
  H   3.28468611454541      3.90205320158443     -2.45128496731375
  H   3.69683086983925     -1.17391039313631     -0.84229639339461
