22
Coordinates from ORCA-job 5892optt
  Br  0.96991545345624     -1.32495179832526      0.90040813846648
  C   2.71242534063146     -0.71120506701671      0.49411995617528
  C   2.92528271720728      0.62734150419461      0.33346439460187
  C   1.95731536860065      1.71089208246439      0.48627265174252
  C   1.98921004130854      2.66643927804358     -0.45289512875425
  C   2.33764251682439      4.01415714992902      0.03614879523231
  O   1.73472806261634      5.01412692138849      0.28923083197322
  S   4.14335084860260      3.86468354181807      0.32388369734385
  N   4.74905784792842      2.35117036467894      0.02824102685816
  C   4.26733503265176      1.10802798583526      0.10484215255233
  C   5.26763426683784      0.06262301981305     -0.02391071322948
  C   6.68214108302765      0.50300935845341     -0.32780769486946
  C   7.21843681552760      1.50837854178679      0.67115087289003
  O   7.39826385911030      1.25330230777394      1.83141281805980
  N   5.03801806312527     -1.20547695751677      0.07846396704477
  C   3.76260615045971     -1.70261337000758      0.35329899626258
  O   3.56742787230737     -2.90977611727702      0.45602056755692
  H   1.54635991010834      1.91035842108302      1.47221114538511
  H   2.47121712513348      2.42451959493736     -1.39589490660016
  H   6.71320599523792      0.95155745279997     -1.32321902348233
  H   7.31175139779370     -0.38620042650211     -0.30158248180070
  H   7.48667423150284      2.50063621164547      0.26813993659113
