27
Coordinates from ORCA-job 5893optt
  Br  8.53307406526826     -3.28771307674291     -1.08491980236980
  C   7.28134009568099     -2.05966076839393     -1.79719506612194
  C   6.74595160082222     -2.14177811072201     -3.05792739926409
  C   5.46672381349252     -1.31049673643621     -3.27387954954046
  C   5.60068802356323      0.23741435797579     -3.04099207938938
  C   6.92952257796260      0.41766156632433     -2.38106341318901
  S   7.05447785948277     -0.56611924781503     -0.88645802027711
  C   7.99465346986607      0.82335271015426     -3.06856437557132
  C   9.36080208495828      0.25403779490663     -2.84978629780705
  N   10.28093607360859      0.64120552541164     -2.06157506331681
  N   9.47010316629702     -0.85092519670735     -3.67601648088659
  C   10.27774103673266     -1.98667850030717     -3.48787088010181
  N   11.36541003421365     -2.01329790720379     -2.84750371520855
  C   9.70915202573376     -3.20613162293032     -4.18495681501923
  N   10.61834386809756     -4.01699617622961     -4.66383943573396
  C   8.30145459652335     -3.43244232156370     -4.43050131368289
  N   7.11770451141305     -2.89026216792451     -4.11021596880321
  H   5.13264108352404     -1.50435488002720     -4.29093171440398
  H   4.70787012688528     -1.68978252203444     -2.58663629163171
  H   4.77669209155002      0.58367997675668     -2.41608981418168
  H   5.57592234579409      0.77588282639788     -3.99051229501174
  H   7.83075136947386      1.26369606380586     -4.05019156642191
  H   9.94955710114623      1.44083995713134     -1.53032303105538
  H   8.62345264024855     -1.06066184333353     -4.18588245298015
  H   11.56565355917765     -1.08820255682416     -2.47047707979654
  H   10.14700490255602     -4.80467657827361     -5.11175971186158
  H   8.18537587592722     -4.23359056539486     -5.16293036637197
