24
Coordinates from ORCA-job 5894optt
  Br  0.92892358580889     -0.65634024103805     -0.12683689068176
  C   2.71021583202290     -1.64520664620786     -0.13680320863913
  C   3.57163061806463     -0.99759270230977      0.86367218599501
  C   4.69431798890811     -0.17962985053286      0.56176468621946
  C   5.41622514650277     -0.44164805019678     -0.55566117014773
  C   5.03651339185826     -1.60641598971943     -1.37302075021060
  S   3.32040390361760     -1.62079866217675     -1.82559883174895
  C   5.88717847024245     -2.63237033993023     -1.48801381078318
  C   5.63074584465601     -4.10741509843175     -1.62772521098985
  N   5.71496177054491     -4.69003174990784     -2.75520385393033
  N   5.59063571512700     -4.65596217697655     -0.35450053618516
  C   4.55950112036582     -4.31118634208423      0.40309003544311
  N   3.42348519644567     -3.90318195985002     -0.08904294841905
  C   2.49268703165407     -3.06966606401418      0.50054449145936
  O   2.61231311672270     -2.78226026785804      1.93230844779474
  C   3.31036569621930     -1.64848817065184      2.14906675825353
  N   3.64910423746165     -1.31135121760763      3.32675383241503
  H   5.06130859300764      0.52813610022597      1.29756982029718
  H   6.34618466645870      0.08198707841113     -0.74904183289843
  H   6.91201009276298     -2.43264720142945     -1.17632024325111
  H   5.58897106762977     -5.69136371414692     -2.59532096967921
  H   4.69636840109579     -4.41793730915299      1.48613409511654
  H   1.46760416226244     -3.41332358599182      0.36144452648999
  H   4.15334435055968     -0.42930583842194      3.29074137808052
