24
Coordinates from ORCA-job 5895optt
  Br  3.34165631903387      0.05064786348593     -0.86033245408851
  C   4.76989911004366     -1.15441158751301     -0.48097323961988
  C   4.75227896032518     -2.39324500388027     -0.95873285862824
  C   5.88764913179268     -3.34274548163579     -0.68109063329976
  C   6.39224497034252     -3.10785644401953      0.76044240028645
  C   7.10356156666623     -1.78996517131856      0.72618992636883
  S   6.00113657477228     -0.40294517605746      0.52298900240594
  C   8.41874335647664     -1.56912837035089      0.75315527635680
  C   9.53112582835391     -2.55396346315485      0.96821268051591
  O   10.45671589643556     -2.20883411643615      1.73130772790476
  C   9.52643398136608     -3.81151849549820      0.29501906930724
  N   8.57285993597215     -4.15479885153186     -0.56162532435868
  C   8.47051282499630     -5.40860659015202     -1.02842699324598
  N   9.31774554908931     -6.32742060879906     -1.30330337239654
  S   6.76503312922739     -6.01639087310657     -1.31741310590323
  C   5.51660009238843     -4.78617105509105     -0.94660570106545
  O   4.37479025778985     -5.16935709399838     -0.98486157284402
  H   3.91165024952821     -2.73515772388560     -1.54818318875303
  H   6.73249732583717     -3.12172707608635     -1.33359062734663
  H   7.05805841442067     -3.89617389392010      1.08801394252882
  H   5.53189149267931     -3.05797351915581      1.43208041505694
  H   8.77117746684870     -0.54301649471386      0.69256793647931
  H   10.32025426620733     -4.50228832940672      0.58972539010329
  H   10.26148329940641     -5.97495244377376     -1.14256469576434
