24
Coordinates from ORCA-job 5896optt
  Br  1.95479022242770     -0.26917816166962      1.20915279432423
  C   2.99681630773164     -1.91990471310498      0.80141116833504
  C   4.27195592387640     -1.96377287128457      1.44502742707069
  C   5.08610129467223     -0.73248707689290      1.20380738940130
  C   5.33983090153645     -0.51721815983054     -0.09664024155608
  C   4.90669629220034     -1.55736468174770     -1.06053662498038
  S   3.22847979663042     -2.19399420139823     -0.90464070196220
  C   5.79725722865446     -2.28709921259927     -1.74224238683997
  N   5.47715422081720     -3.63861441431709     -2.08573240867506
  C   5.77483655429381     -4.39239134224173     -1.10666401889566
  C   5.22295548424131     -5.76663145286092     -0.94761303649403
  N   4.65367707569227     -6.43779852425477     -1.85425211745275
  C   5.35610984700931     -6.31168358662401      0.45723689826999
  N   5.62027801371607     -7.52568495212367      0.66882577392575
  O   5.27907601281781     -5.39885795712121      1.46565971167467
  C   4.46125521507076     -4.27230846376976      1.29033949348450
  N   4.96787302717237     -3.12286265790668      1.55912638483031
  H   5.41634138191860     -0.04334416030095      1.97306954771215
  H   5.91110204400406      0.33754529993025     -0.44316142904079
  H   6.83170701656808     -1.97265842766096     -1.85001263579398
  H   6.35830887755052     -4.02244912054068     -0.26293693255328
  H   4.67440293388202     -5.88471531807327     -2.71690022327523
  H   5.68345785278571     -7.68169823315012      1.67557452848784
  H   3.42653647473033     -4.49782761045651      1.05110164000293
