18
Coordinates from ORCA-job 5898optt
  Br  0.73946142684233     -0.20030783765791      0.14525902494100
  C   2.61901251755962     -0.15961588875023      0.08465443834791
  C   3.40021540636255     -1.30209111457570      0.06997898296172
  C   4.84292437054879     -1.24523204027942      0.06492070071965
  C   5.56865779370285     -0.04552924397089      0.07404507118962
  C   4.98540221454558      1.18791088599444      0.07330517871416
  S   3.24368608873606      1.46548612771173      0.05409769431101
  C   5.75657811035690      2.37715194708855      0.08416173599053
  N   6.36298645245723      3.35768375848246      0.09176483906228
  N   5.40267757522935     -2.47838605838837      0.06506447943447
  C   4.38299966156707     -3.33613695877998      0.06768921475359
  C   4.57715583155640     -4.74718554550943      0.07129235588972
  C   4.70507523575233     -5.94153048822026      0.07552263119516
  C   3.11263696956902     -2.68883640195447      0.07034276230821
  C   1.86391393380941     -3.34745957671601      0.05852418437388
  N   0.86186010470636     -3.91753039911548      0.04631857826117
  H   6.65080773819549     -0.10580285915028      0.08553774848539
  H   4.81994856850261     -6.99758830620873      0.08052037906054
