24
Coordinates from ORCA-job 5901optt
  Br  2.82361595804696     -1.29787504539243     -3.33394496852948
  C   3.88440267903024     -0.58208552890502     -1.89073979076835
  C   3.42800665133504     -0.62659217953214     -0.61863996566104
  C   4.30241882056169     -0.11085209252303      0.45604795885664
  C   5.61378734836579     -0.40683432765688      0.43845635514307
  C   6.15377381283248     -1.10003349086435     -0.74255410002610
  S   5.58339139995504     -0.26361517597889     -2.23583181267546
  N   6.30139363392269     -2.42410670400997     -0.82746991275838
  C   5.58763368326814     -3.15759555571106      0.04774955949551
  C   5.27736253010171     -4.50258199842574      0.00293645722249
  C   4.00258896862188     -4.92502854543421      0.52594594454485
  C   3.83198017636950     -6.27897310711529      1.06421992125529
  O   4.66971776854256     -7.15202786023320      1.08644297897478
  C   2.86689037222223     -4.12251355656665      0.50538267967213
  C   2.88428144534458     -2.92041160819353     -0.28276895555529
  C   2.52078646984958     -1.63973934508709     -0.03146351434578
  H   3.82903362977364      0.31893013602139      1.33305023784116
  H   6.23826466236833     -0.25661326330312      1.31392869966707
  H   5.01155132353197     -2.60360281078484      0.78737013656241
  H   5.90632921345434     -5.22466479658733     -0.50439029406144
  H   2.81574253397332     -6.47931356663485      1.46673153993084
  H   2.00761823612608     -4.40050266011813      1.11023555437612
  H   3.55493793210228     -3.03079275642566     -1.12803695400730
  H   1.97949075029986     -1.37457416053792      0.87134224484626
