23
Coordinates from ORCA-job 5905optt
  Br  0.93998794912018      0.09117606957464      1.32963524797571
  C   2.73575821774296      0.14735424181377      0.75353935605141
  C   3.68605313235546      0.96961894482699      1.28021930728966
  C   5.06619628662667      0.95573120105561      0.89773067791827
  C   5.52340901325968     -0.14836748770082      0.12449636986059
  C   4.74025895499589     -1.06000211728090     -0.49810195340740
  S   3.03962539887200     -0.84412877172642     -0.65329815165547
  O   2.71609411603732     -0.08418973946100     -1.84119333485778
  O   2.37419378168580     -2.12208513857983     -0.53038693239066
  C   6.02272315727002      1.91108330348819      1.31520026950332
  C   5.84186710978743      3.18365666759172      1.89896924753746
  C   4.65917815451526      3.81777931168983      2.20426138022492
  O   3.42265543528064      3.24344767123520      2.05039674954815
  C   3.33315004641807      1.89765920509008      2.38603114701419
  N   2.97340494433230      1.51955322444118      3.52422279721494
  C   7.02332050702651      3.95267589682906      2.17450987270136
  C   8.00785311111696      4.60168807860934      2.40856317339543
  H   6.59963881151774     -0.28406970823695      0.06254483251806
  H   5.11995984241344     -1.93993934166750     -0.99837929846192
  H   7.05309486780372      1.66218384687681      1.09048110183272
  H   4.61730020563012      4.83392716837360      2.56385666361412
  H   2.80126637108959      2.33503848307046      4.11434257429751
  H   8.87701058510214      5.17720899008693      2.61235890227539
