27
Coordinates from ORCA-job 5908optt
  Br  6.85797839355661     -3.39780168918152     -1.10267092210515
  C   6.63788005766691     -1.71067223258189     -1.97533769618984
  C   6.73497122890738     -1.59660864253644     -3.38427192245134
  C   6.05420448046668     -0.34353472920679     -3.87816152468729
  C   6.77837213453800      0.87120246730634     -3.27764841441908
  C   7.00247781585952      0.67595538729656     -1.80320964397815
  S   8.22418281920970      1.66731216955910     -1.04040488336353
  C   9.71552448351837      0.70827622848621     -1.36039943145357
  O   10.72081864071266      0.88856214267627     -0.73280640679084
  O   9.57042887329667     -0.21456859742793     -2.33131031759330
  C   10.48168756171098     -1.26880132922333     -2.32088974135233
  C   10.88254503486438     -1.98089687820880     -3.38326256795668
  N   10.80974660551154     -1.82410131555911     -4.74968161432889
  C   9.76427026988991     -1.62518855120998     -5.49724881219770
  C   8.37525047604658     -1.67013003126525     -5.23603522261141
  C   7.83106011282257     -2.12851417539703     -4.03810104568831
  C   6.76851756835941     -0.55988146115517     -1.20374159095899
  H   6.06190366563584     -0.28316171385260     -4.96628848601812
  H   5.01176777685069     -0.34078931171249     -3.55040583436301
  H   6.19434834140290      1.77884048252402     -3.46647994582305
  H   7.74458469007668      1.00312730023094     -3.77624936731028
  H   10.84283592267236     -1.51781374233654     -1.33436427068759
  H   11.55882809590709     -2.78029442310581     -3.08298081161157
  H   10.02049830889796     -1.34718984404874     -6.52298321020873
  H   7.75500788634291     -1.14551489974198     -5.95404467431975
  H   8.43547048578544     -2.82224492072345     -3.46233293851343
  H   6.91483826949010     -0.66056768960457     -0.13468870301802
