28
Coordinates from ORCA-job 5923optt
  Br  1.49584455941732      0.28773356287328     -2.43264958781509
  C   2.95822634930023      0.11816658219155     -0.54720038849169
  C   3.72359051686098      1.22529110890152     -0.34871680581205
  C   3.42414422417935      2.69459304081639     -0.47377144516394
  C   4.83795862957106      3.31671169163974     -0.49769688014621
  N   5.68420617340291      2.29897806445543      0.15558924479305
  C   5.08270060331338      1.04382855888665     -0.03475182552789
  C   5.72102570801447     -0.16540255774300     -0.06554160355907
  N   7.12638358267495     -0.32681703166131     -0.09339589435582
  C   7.82301753684339     -0.55185752277982      1.16249458517424
  C   8.15359133371715      0.72606498618912      1.92695152183429
  C   6.92981845041532      1.61488661156054      2.19663475258908
  C   6.59534662668713      2.63622113273616      1.11804982989451
  O   7.06548855241776      3.76011710269880      1.16967757148152
  C   4.88797636694558     -1.33561439597194     -0.22768558319647
  O   5.24606364337841     -2.48602656165779     -0.18349925317193
  O   3.52602353580978     -1.08924055597972     -0.42052574301267
  H   2.84870729741966      3.07219764458052      0.37577515889950
  H   2.86276591361533      2.90748373018000     -1.38308062679806
  H   4.93461986050894      4.25423502183511      0.04354833540868
  H   5.18042568279411      3.46774338312474     -1.52301089695068
  H   7.56029187310238      0.41812073321644     -0.62517249847312
  H   8.74605094208451     -1.10387380349908      0.96396330718963
  H   7.18785229986807     -1.20244765229107      1.76730866004181
  H   8.90450155561142      1.30647651665162      1.38099351434119
  H   8.60816234266369      0.45389638091544      2.88324402529851
  H   7.12941955130528      2.23523509247875      3.06938917848986
  H   6.06079628807721      0.98829913565188      2.40607934703878
