22
Coordinates from ORCA-job 5924optt
  Br  1.00449423545852     -0.06493893856627      0.09020898398874
  C   2.87109354740092      0.06758642365272      0.06465317509017
  C   3.54334248823953      1.29622784179305      0.05854274653793
  C   4.97991444133887      1.26608667491658      0.05097839383806
  C   5.52866201314445      2.66787047848287      0.05164219419135
  N   4.30467662272018      3.44563328688643      0.05381143098690
  C   3.13798627015375      2.65211536846039      0.05751514247377
  N   1.92966512151596      3.17087341448090      0.05789403140451
  C   1.80126630413428      4.52205893811292      0.05466956064593
  O   0.74935634706798      5.13265331632500      0.05295246074257
  N   2.99680838930590      5.29223606049135      0.05322932380284
  C   4.27670649653735      4.80401704796125      0.05241367321709
  O   5.27573272617194      5.50332392855595      0.05026987524094
  N   5.71408006975959      0.21750212576814      0.04454272054909
  N   5.02001151771880     -0.95805426105341      0.04454074250010
  C   3.63409959112563     -1.15282335217112      0.05584757735491
  N   3.10939968184503     -2.33194344997695      0.05776735546113
  H   6.12817349455849      2.88780375064050     -0.83291888095931
  H   6.12995225865875      2.88589591672160      0.93554239152490
  H   2.88871954516119      6.29379123531396      0.05109245589670
  H   5.60322295953504     -1.77554166051604      0.03822774098563
  H   3.83463587844779     -3.04637414627984      0.05057690452608
