24
Coordinates from ORCA-job 5935optt
  Br  1.24904409892416      0.20890762355313      0.20232157064611
  C   3.11190382870341      0.00292663762522      0.06324516247469
  C   3.73954036541136     -1.21036371391901     -0.00273538765028
  C   3.27690694148112     -2.57257432675648     -0.02452681852952
  C   4.38990133493405     -3.34043110090942     -0.10218302534427
  N   5.52845560544283     -2.56101100533353     -0.12786978211048
  C   6.80879572794985     -3.13660642874216     -0.20708602885627
  C   7.99291429106656     -2.50280364479237     -0.19882427093856
  C   8.28393221306530     -1.09007236255505     -0.11733108225042
  C   7.37308349541155     -0.03652673634749     -0.06290608926781
  C   5.97082842298279     -0.05939721717632     -0.05645439665793
  C   5.15854252912609     -1.22768504153152     -0.06652635382460
  C   5.25429937694598      1.21766766427398     -0.02234576045866
  N   5.70653345972055      2.42822155666455     -0.05410885511403
  N   3.86165252627090      1.14381532325870      0.05625233805413
  C   9.66334432531611     -0.75345909883707     -0.09500056270604
  N   10.79088669278747     -0.49526058448075     -0.08065527587455
  H   2.25502247448245     -2.90947830424696      0.00761601047714
  H   4.48747163938434     -4.41341670784027     -0.14566719410588
  H   6.77162850098828     -4.21440218266698     -0.27508588607100
  H   8.85581141812203     -3.15430095833113     -0.26128946118449
  H   7.83240133221149      0.94175530306682     -0.00777261948927
  H   6.71467709851357      2.44272196156292     -0.12751086965601
  H   3.41342230075767      2.04677334446123      0.07144463843800
