24
Coordinates from ORCA-job 5938optt
  Br  1.09659368846885      0.15034958795355     -1.09093316562303
  C   2.89343501001306      0.10442165534911     -0.50771462471565
  C   3.53044196643212     -1.13023901521830     -0.27807543342612
  C   3.32836927708409     -2.61392288017435     -0.47053923500376
  C   4.77435754437851     -3.21296878549422     -0.51900220157523
  N   5.62154797456713     -2.12573126159586     -0.00167242756477
  C   6.92693893299056     -1.76005056159653      0.05766179958349
  C   6.97458615768192     -0.35498959748074      0.20498544515140
  C   8.19787846455973      0.39133289107808      0.31021463957265
  O   8.28350923914349      1.60002608231555      0.40794461503817
  C   5.62501627366602      0.12257911110452      0.19926854231986
  N   4.93056594907765      1.31304708291412      0.09537895927807
  C   3.56029823070631      1.36322619088366     -0.30675916946606
  O   3.06114495243145      2.47927506191589     -0.45974688946467
  C   4.86439545993684     -0.99992651913199      0.08473232605143
  C   2.65118186218531     -2.95819918419210      0.83899328831343
  O   3.18956359305298     -3.56535155817027      1.74922207550183
  H   2.71976931911274     -2.88799459009468     -1.33732109165324
  H   5.07414932127056     -3.44769295063598     -1.54172083079773
  H   4.83560011732409     -4.09809089910467      0.11183561053996
  H   7.73982072149664     -2.46727858163182      0.06785688505444
  H   9.11937426303016     -0.22669046622042      0.28763119821194
  H   5.39330875359607      2.20593065254240      0.14015465978442
  H   1.64415292779360     -2.52206146531493      0.94860502488915
