26
Coordinates from ORCA-job 5939optt
  Br  0.88640951261904     -0.73527527594820     -1.55547284194234
  C   2.55791375216252     -0.58166162554967     -0.66346596961248
  C   3.39042653821317     -1.70638207520997     -0.47198536851523
  C   4.69784950738437     -1.58852839758149      0.07643795670583
  C   5.34972278932807     -2.94278026839539      0.06724690971430
  N   4.29288995151042     -3.87386095571390     -0.33611716212855
  C   4.72411438313552     -4.80166499129577     -1.37750067069957
  C   3.95773369150744     -6.11760760219835     -1.42645614008496
  C   2.47902344317450     -5.96225717902078     -1.69096628410689
  O   1.93027215777267     -6.55501637291335     -2.58977402815597
  C   1.73464070828891     -5.04445486875976     -0.74424984477474
  N   1.97912957876338     -3.63534522968418     -0.95746198159963
  C   3.11231474099323     -3.11581261232404     -0.64477695246921
  C   5.27027957755535     -0.46493194635105      0.54893321920647
  S   4.46351930758192      1.07332792489773      0.52938120009402
  C   2.86801682947340      0.75212387218960     -0.30746137321708
  O   2.19998724458308      1.76181135146484     -0.47019612211524
  H   5.75968867812499     -3.21380536120919      1.04397131147695
  H   6.17143350172220     -2.96123143520998     -0.65758332493242
  H   5.76874206643725     -5.04536943246900     -1.17878523920773
  H   4.68309102461886     -4.31319055310357     -2.36248016655013
  H   4.37904861715324     -6.76441948387917     -2.19635885685339
  H   4.06181539612941     -6.60886948612889     -0.45334564650410
  H   2.01977334601972     -5.33219559936336      0.28004406886610
  H   0.67032464503424     -5.23370586316861     -0.88222666960555
  H   6.26983901071296     -0.45989653307437      0.96564997701160
