25
Coordinates from ORCA-job 5945optt
  Br  0.91152280268834      0.29739225491908      0.17017045097245
  C   2.82162434501033      0.15184471764104      0.03514458841834
  C   3.43969052953251     -1.07524553162560      0.06345258036472
  C   2.71042876608459     -2.36968504457372      0.27007155244349
  C   2.98294127488880     -3.40641387935466     -0.81800625878025
  N   4.26691173994257     -4.03416456524198     -0.63177781603364
  C   4.56368121326071     -5.34846754759369     -0.87371636460654
  N   5.78788704268145     -5.69816693420260     -0.77842520706108
  C   6.51739183249072     -4.47358505684136     -0.41973071345057
  C   5.48169662125373     -3.36657981549137     -0.37435244560934
  N   5.72602604200120     -2.13267164622966     -0.13444063596449
  C   4.88511699648896     -1.06677245468570     -0.02740195045942
  C   5.50904799242557      0.20801266613352     -0.00267173194446
  N   4.90929103515066      1.36279189197652     -0.01618507028902
  C   3.53442280484088      1.36775922180105     -0.04116993976681
  C   2.89614863724468      2.62775258571565     -0.13099731139905
  N   2.39078919200015      3.66576560495294     -0.20633546152930
  H   1.63969911091584     -2.18702079005172      0.31161902109758
  H   3.00563783535651     -2.81320380345901      1.22859294189377
  H   2.91873278499170     -2.92321375159873     -1.80001290037279
  H   2.23017159710792     -4.19724016187444     -0.78096096882625
  H   3.75614744357537     -6.02831094173928     -1.12860016260720
  H   7.30987528096550     -4.26692827875550     -1.14582487504468
  H   7.00789644241834     -4.60165960993448      0.55241946430377
  H   6.59622063668291      0.21301087011372      0.01313921425080
