21
Coordinates from ORCA-job 5949optt
  Br  0.99337555649702      0.09843091510019     -0.05964229050434
  C   2.88498483911036      0.04727496926908     -0.05923053765148
  C   3.56912813428191     -1.17153892519733     -0.05835186212914
  C   3.36766815619500     -2.61098604797288     -0.05701688405303
  C   4.60990726264410     -3.20213350688725     -0.05620033823378
  N   5.58434502416554     -2.22587214963454     -0.05707423112467
  C   7.01649380749135     -1.95630745387380     -0.05607551095839
  O   7.87497223258958     -2.82418683181578     -0.05437792250172
  C   7.14286343391736     -0.48374333699644     -0.05717039747972
  N   8.26975345234088      0.20537703708647     -0.05689981757930
  C   5.79460945052714      0.05597008461219     -0.05843846226605
  C   5.06962732312847      1.24270380062376     -0.05927871714199
  C   3.63331810264320      1.23720654600427     -0.05971384044782
  N   3.07408957524612      2.50476401217999     -0.06056578179281
  C   3.98479316093157      3.40958295691725     -0.06073001619223
  S   5.63603618036852      2.87729223551106     -0.05979689469754
  C   4.94597104122784     -1.03936846414231     -0.05829512257987
  H   2.42651168967986     -3.13610667239870     -0.05672154411586
  H   4.86968084466216     -4.24803685285157     -0.05516169085125
  H   9.03996257808252     -0.46487888167518     -0.05590974285726
  H   3.75690815426948      4.46755656614150     -0.06134839484175
