25
Coordinates from ORCA-job 5950optt
  Br  0.88130600560274      0.15112249145262      1.00344650099037
  C   2.97941267381776     -0.04358608338276     -0.28838530417078
  C   3.65140805423060     -1.24253854670499     -0.25703422391028
  C   3.34549879140088     -2.72290600439246     -0.14878230900821
  C   4.76469489021525     -3.39930234194259     -0.03621999968876
  N   5.70644902877845     -2.28934856022674     -0.21520030537670
  C   7.04756181808588     -2.05513247232481     -0.16307655047913
  O   7.94457035179481     -2.85354488315795     -0.04667292458179
  C   7.21528924601086     -0.49224429072415     -0.27708755786420
  O   7.96375292145801     -0.10453760010298      0.89760294310650
  C   8.73898489705718      0.96398645434787      0.79405567132224
  O   8.91008852845581      1.63213124535715     -0.18521305840214
  C   5.80619045864264      0.01052707829247     -0.31127226802572
  C   5.01962453030809     -1.09295986878348     -0.27248543387633
  C   5.12230354392388      1.27096251139073     -0.37053187254127
  N   5.55578617945512      2.47904287580841     -0.44053020530604
  N   3.70801452802216      1.09377710282113     -0.33827596400991
  H   2.81302612396243     -3.10536605845863     -1.02129206196577
  H   2.73706479849752     -2.94948317686216      0.72747455557119
  H   4.92452394358993     -4.16041295470256     -0.79899613814069
  H   4.91803089243874     -3.85793006990502      0.94145627747830
  H   7.82279936948669     -0.24702985307647     -1.15023132610321
  H   9.22137939953547      1.15450230102324      1.76118741465791
  H   6.57119487304558      2.48276932267731     -0.47679407235226
  H   3.20304415218330      1.97050138157685     -0.33114178732332
