22
Coordinates from ORCA-job 5951optt
  Br  1.12805573147616     -0.31767077668344     -0.07847371279636
  C   3.00094706628825     -0.14615387939514     -0.08190212343906
  C   3.60010396332901      1.12589238701182     -0.08256803303800
  C   5.04478293825352      1.20501929136930     -0.08363256239290
  C   5.49275118415022      2.65007865300340     -0.08324126413516
  N   4.21221191497551      3.32129558582838     -0.08274472225023
  C   3.86228827165587      4.63849347962984     -0.08258760426526
  O   4.60238514420507      5.61307461263610     -0.08285329787757
  N   2.49159520610461      4.60580058380201     -0.08238517634386
  C   1.99010670183314      3.27307995638207     -0.08240130875566
  C   0.60947211207381      3.06657879028948     -0.08310529306291
  N   -0.54690444074075      3.01470907171194     -0.08373718296426
  C   3.11222942370317      2.44694337155352     -0.08247394347310
  C   5.78961734958012      0.08815512461359     -0.08483577193841
  N   5.16233102449629     -1.14148092876941     -0.08498351998172
  C   3.76699061074722     -1.34398748860107     -0.08312312646361
  O   3.35668881852199     -2.50401566881320     -0.08293957880663
  H   6.07234461520015      2.92346205530963     -0.96818571278757
  H   6.07267942430059      2.92282944666142      0.80168777860668
  H   1.92729384974823      5.43512587935013     -0.08285326872381
  H   6.87112644864941      0.08164983471481     -0.08578948657153
  H   5.69290264144836     -1.99587938160519     -0.08587108853908
