23
Coordinates from ORCA-job 5952optt
  Br  1.21009465048297     -0.04658292298130     -0.98443783510711
  C   3.00097765586056     -0.08593184547755     -0.32244777847401
  C   3.61502041452167     -1.31388552339109     -0.10317763160159
  C   2.97554694447524     -2.55341231094801      0.42378252488165
  C   3.57944200111941     -3.77116734486818     -0.26222655524675
  N   5.02276863791741     -3.62209713388092     -0.22325863225348
  C   5.92466769429804     -4.66677196712876     -0.32232814133728
  O   5.67819368409195     -5.85111309113231     -0.48366606583686
  N   7.11630624498317     -4.03049147487466     -0.18872423456278
  N   7.01531315811683     -2.66638558091100     -0.00519818360388
  C   5.73691891085216     -2.45777123673337     -0.03155064744177
  N   5.04562497013798     -1.26664877244640      0.08719116326109
  C   5.71150294733770     -0.09245292130197      0.41723102887090
  O   6.86653949410588     -0.03564495513015      0.73260410615654
  O   4.96459812151509      1.02279280278652      0.37276822301525
  C   3.69454811259895      1.12719723525503     -0.27517235046562
  N   3.34512904774882      2.29557266956451     -0.68196086706407
  H   1.90484379441219     -2.51332832873876      0.23537708307517
  H   3.12416061164898     -2.65433589443432      1.51218912758659
  H   3.24781641904885     -3.82248645679412     -1.30068832879155
  H   3.33517473797706     -4.71248158315406      0.23240088479420
  H   8.01659384816275     -4.47073611541351     -0.18561298325757
  H   4.08021789858624      2.95916275213442     -0.45509390659709
