31
Coordinates from ORCA-job 5963optt
  Br  3.77494488463279      1.37079823628103      2.25544520183798
  C   4.42892689199210      0.50486283580910      0.67421810205478
  C   4.83828209303615     -0.84941811969449      0.71038917659782
  C   5.44770543689778     -1.30157419898995     -0.49460624971393
  C   5.49813140360782     -0.50770003048655     -1.60547576052437
  N   5.00706486159815      0.76380399265070     -1.65511482965106
  C   4.53360849094506      1.24069507129696     -0.48046604098935
  C   6.07072735692910     -2.65337724635332     -0.25838422180015
  C   5.28742975915956     -3.16627273027682      0.96251347997581
  C   4.77217402842587     -1.93717442977421      1.75642159296477
  N   5.47768061549403     -1.72664659358985      3.01913819745048
  C   6.69813784299210     -0.94161157883173      2.97979298234585
  C   7.89575040874841     -1.63473587388418      2.32081810343055
  N   8.04831952521533     -1.48225329438980      0.87802050906029
  C   7.58886614087173     -2.53228198487406     -0.01044506059261
  C   3.30264910007967     -2.13528940948680      2.07197168310898
  O   2.75835585479567     -1.80862806960937      3.10944333454895
  H   5.95975961612280     -0.87585779924204     -2.51939806703220
  H   4.22076229212141      2.28022674664814     -0.47104554762254
  H   5.94047535895352     -3.32364208162122     -1.11355213117622
  H   5.87412753399778     -3.80874931117350      1.62026266347237
  H   4.42682328034798     -3.74402044104436      0.61298751344756
  H   4.81188545305683     -1.30696923093173      3.66136221454877
  H   6.56045271547066      0.03710693749501      2.49359470395194
  H   6.96519339199982     -0.74212754393052      4.02105566994671
  H   7.87249981920461     -2.70028407939721      2.56524259787305
  H   8.79594576679512     -1.22225496437017      2.79169102387890
  H   7.67393844600139     -0.58968856961306      0.57313315421925
  H   7.96728669116208     -3.48661905514671      0.37347645355378
  H   8.06959035271893     -2.36695403376188     -0.97950230607711
  H   2.72150458662562     -2.52636314970739      1.21601185691092
