23
Coordinates from ORCA-job 5970optt
  Br  1.17653453017296     -0.40359841498553      1.49079199947998
  C   2.71054638537050      0.27143294630216      0.59536520658784
  C   2.67058592774968      0.77506156246631     -0.71685519177172
  C   3.95297283630177      0.78238373441288     -1.34058282978035
  C   5.06763416202735      0.73385148998877     -0.53662179286849
  N   4.98253876367400      0.95200099284835      0.79115512420215
  C   3.78544857687558      0.82287412876714      1.33770857677630
  C   3.27751837599949      1.85206949764845      2.32087995771929
  C   3.17095782006036      3.04734314757661      1.72422025491767
  C   2.18589732246952      4.19158660699332      1.98785219096006
  O   1.99026348430730      4.63840414992897      3.10221493527428
  N   1.66132222348909      4.68606325770503      0.81165401986193
  C   1.39609499865447      3.82936762456541     -0.17699698456863
  C   1.84939513879035      3.90107915381107     -1.57262063625803
  N   2.04441205973231      2.71567900840950     -2.07839693850434
  C   1.68940267488863      1.79615951427484     -1.05960789984888
  C   1.07886241751190      2.46656798074271     -0.00287708286483
  H   4.02807385576533      1.01636882014469     -2.39350723657698
  H   6.06470253473018      0.71063387447344     -0.96109946181023
  H   2.72403383831966      1.59444367608196      3.21447174425417
  H   3.68090214759482      3.15533296717289      0.76963306315011
  H   2.10068729121339      4.80302482982114     -2.11655116621551
  H   0.75621263430132      2.06786945084987      0.93977014788421
