25
Coordinates from ORCA-job 5973optt
  Br  1.57063377895090      0.12589823111572     -2.38149414144870
  C   2.66436369229941      0.34352797367155     -0.86348041479324
  C   3.54556353860446      1.45708641687876     -0.77777535583351
  C   4.55216128299498      1.41422401909817      0.16306367079764
  C   4.45969036181881      0.35269128837410      1.10025770347594
  N   3.35740300192244     -0.32046935463897      1.29181440265606
  C   2.28789842952738     -0.06211473486976      0.44089307458091
  C   1.04813600454284      0.28707077379823      1.00820916130052
  C   -0.04072513502685      0.98304390496622      0.37430778983574
  N   -0.36444407994492      2.33093402794631      0.83549163481467
  C   -0.29830449038411      3.43695529166677     -0.02862299602241
  N   -1.19931483787363      4.32268290771950     -0.18912688368845
  N   0.88902921901751      3.63290238107623     -0.76809581637671
  C   1.99830896561892      2.88939315429348     -0.55249308957737
  N   2.97889419628940      2.64471689774797     -1.35233620134342
  C   -0.99418285902859      0.41385589813285     -0.49708998648549
  O   -2.02727814851721      0.97688089739568     -0.88398379335532
  H   5.23351548781630      2.24185860437207      0.30284356155832
  H   5.27948652347334      0.14271669570878      1.78289935136391
  H   1.11874426133532      0.36000509466312      2.09398261015762
  H   -1.28802603667692      2.35564936114971      1.25439471282548
  H   -2.06994939675568      4.02007883937082      0.23790602935169
  H   0.76392875416242      4.13620171110126     -1.63313333795179
  H   1.95233463970649      2.43418553199578      0.43198993438057
  H   -0.79486715387304     -0.63397581273439     -0.78042162022265
