24
Coordinates from ORCA-job 5975optt
  Br  1.79602857656266     -0.07839383306339      2.51620078230079
  C   3.11931428570024      0.08280803195658      1.16827191622958
  C   3.64549784668004      1.35123726394257      0.79020081347658
  C   5.05176733932847      1.34616053803108      0.49364590943992
  C   5.67487988776858      0.17386271033547      0.24380000220094
  N   4.95464017455446     -1.00698111682004      0.18412429045711
  C   3.59636777493967     -1.05755527536095      0.48786335368044
  C   2.83680889335205     -2.10761240066535     -0.00793962957208
  C   1.42069740567423     -2.13506814339787     -0.30036174364332
  N   0.72382861361383     -3.16359225937870     -0.59996048845937
  O   0.67544752424070     -0.95917299255303     -0.32609775589693
  C   1.25729428646011      0.23869859285189     -0.51594298750443
  N   0.70999224755143      1.27277032525778     -0.02135957964139
  C   1.48860671446654      2.41812119675430      0.10979559138645
  C   2.82726969003339      2.46626005054236      0.47639060910367
  C   0.80244827049132      3.65855472259417     -0.07739886963524
  N   0.27195801698064      4.66689894956539     -0.25345436994823
  H   5.60316716087589      2.27672405326031      0.42675389648509
  H   6.73176102224103      0.09228008968942      0.03400614004784
  H   5.29972134121678     -1.73378322941722     -0.42242349617010
  H   3.36344294892782     -2.99295655252818     -0.34705940879935
  H   1.29459688518190     -3.99261363720403     -0.46449577194329
  H   2.15092305584354      0.23824436411408     -1.13982274689273
  H   3.29554003731465      3.44510855149339      0.44926354329805
