24
Coordinates from ORCA-job 5978optt
  Br  3.23334379015262      1.26024255238625      1.17788582189996
  C   4.08349450214290     -0.39230939716300      0.73466105554926
  C   3.67414320026392     -1.51726604159715      1.32937812705557
  C   4.30333259708887     -2.84358978339476      1.03232219654698
  C   5.22239053081011     -2.76934389787171     -0.18622673669644
  N   5.98095415082155     -1.50151941112550     -0.17616952563667
  C   5.03986892517880     -0.42741994408957     -0.32961006616692
  C   4.72996030950942      0.16290771594652     -1.58458554029650
  C   3.41745594581659      0.23914726535541     -2.06284840063324
  O   2.89893552702724      0.84758925060388     -2.98343002992841
  O   2.57024638834071     -0.71958497438669     -1.32815879264235
  C   1.37409760118954     -0.38657564718604     -0.87085151791056
  N   0.58183642171398      0.52057065508441     -1.22785697430472
  S   0.66439954147051     -1.57104729119781      0.33588082479874
  C   1.40021319564292     -1.72082374850235      1.98992187291929
  O   0.62973552941700     -2.07483703671576      2.83030429821837
  O   2.69307843469716     -1.53652384587717      2.30659391390541
  H   3.51982203314770     -3.58785904479228      0.85626054620890
  H   4.86322480958291     -3.16605960665870      1.91708450997024
  H   5.92176175218508     -3.60735587949521     -0.17649321775170
  H   4.60893715560967     -2.83466888543497     -1.09429665336392
  H   6.59429886456888     -1.49556391615901     -0.98323682759213
  H   5.50063961246975      0.53449399826802     -2.25003414327361
  H   1.00282918115208      1.02139691400324     -2.01549474087555
