24
Coordinates from ORCA-job 5979optt
  Br  6.51634499886230     -3.00548979785389      2.35815882966204
  C   3.17678294212769      0.26360690658545      0.28250928439961
  C   3.61798602175189      1.18038259465543     -0.69285613910212
  C   5.00629824386029      1.02519043514318     -1.03064069469688
  C   5.79015756378294      0.11380289855881     -0.38603595967182
  N   5.31676290075573     -0.70577592208268      0.58723959367125
  C   4.00784809552904     -0.61989291459342      0.89841158214892
  C   3.19232707368030     -1.34912403714157      1.87961786914141
  N   1.96830041615363     -0.96672228720288      1.87436958675135
  C   1.81570281101236      0.05524186866745      0.84222571519988
  C   1.26555437700617      1.36747643906218      1.35364156671293
  N   0.93217123763281      1.63879190353330      2.53147574584647
  O   1.12004012393295      2.33587637757294      0.41247190032112
  C   1.63026427505425      2.41415908278598     -0.86349197520143
  C   0.79027301337487      3.17580425261940     -1.76069704198096
  O   -0.34010666915523      3.56776917810418     -1.52398427678279
  N   2.82873830730953      2.05959426939070     -1.29632472928044
  H   5.43527892535179      1.65927809661832     -1.79331601167891
  H   6.83999196492561     -0.00423413726256     -0.61459911571357
  H   5.90560845211946     -1.41992945853542      1.08819880894265
  H   3.58090037199565     -2.11421305005004      2.54232171701920
  H   1.12460036210269     -0.31888145206832      0.07595575351544
  H   1.05448342126452      0.80743857583120      3.10554691318481
  H   1.28469076956854      3.36385017766221     -2.72819892240822
