25
Coordinates from ORCA-job 5980optt
  Br  3.68723849581862      0.21613962415742     -2.55951910283245
  C   4.25633906868491      1.34295193615317     -1.16235050680658
  C   3.58689748176105      2.40134773648332     -0.69979668762500
  C   4.33065743928176      3.28177657373966      0.27406383876421
  C   5.81195911144810      3.30455899630838     -0.10483955353555
  N   6.38691659465634      1.94438450317507     -0.15097089195034
  C   5.37375904416542      0.96060353696833     -0.28242963032987
  C   5.30323704769795     -0.09576437366844      0.54241737173606
  N   4.39537315604568     -1.15884669025636      0.61407350748501
  C   3.12623391595962     -1.11956147559674      0.59762480179304
  C   2.09093582398021     -0.02487949946859      0.32205348439782
  O   1.27216323984959     -0.37132013828315     -0.52849784368165
  N   2.12600939574586      1.12560058137516      1.00974322824739
  C   1.66373614232491      2.23931966888268      0.42049873274085
  O   2.25226205380210      2.61786250663822     -0.84792754835277
  C   0.99030042125522      3.27646598858002      1.05568176799740
  C   0.38691348371033      4.17752263045855      1.60561125053809
  H   3.89501367841950      4.28208475852634      0.23681353568055
  H   4.19120091444565      2.89048960453595      1.28883916332710
  H   6.39095515774397      3.89565292960844      0.60641438784111
  H   5.92051376526769      3.76913889743717     -1.08736794906042
  H   6.92138826399760      1.75815776820319      0.68823470270383
  H   6.14573573647455     -0.24238504499929      1.21639425850416
  H   2.63382358049392     -2.09305132376254      0.64884469620515
  H   -0.20656301303064      4.93375030480396      2.05639098621286
