21
Coordinates from ORCA-job 5985optt
  Br  1.14523548524283      0.34917150171926      0.08120336249997
  C   3.01393630874823      0.01439756424117      0.07499944429008
  C   3.56923284234645     -1.26017567704786      0.07371865160664
  C   4.99643610334901     -1.29909627582387      0.06928437631138
  C   5.73756387432609     -0.13347722446809      0.06651318482486
  N   5.17947158026420      1.07647171130160      0.06771889453597
  C   3.84735989636842      1.12967262656575      0.07183741814218
  C   5.45168840008914     -2.69382858873764      0.06798683510742
  O   6.61067514650748     -3.15659517754700      0.06391142582907
  C   4.23060458313358     -3.44655387324975      0.07206106311082
  C   3.09502390324310     -2.63181206266006      0.07552261854916
  C   1.80951141122679     -3.24670558083155      0.07925084203504
  O   0.70057788305000     -2.79739278298898      0.08228589783243
  O   1.85910487821053     -4.67803289347582      0.07885148083845
  C   2.96141561225908     -5.46386142880368      0.07594932867241
  N   2.89824875683978     -6.73201110482785      0.07643613146756
  N   4.15921830801789     -4.80515103008592      0.07239550009328
  H   6.82123766632796     -0.18338333773529      0.06308829091622
  H   3.39723219675914      2.11582597090310      0.07284923461478
  H   1.92457217720364     -7.01812567660641      0.07936273236011
  H   5.00865298648661     -5.34933665984109      0.06977328636216
