24
Coordinates from ORCA-job 5988optt
  Br  1.21208341488323      0.77174583465015      1.51316798128295
  C   2.93303768164333      1.02440350916515      0.77051436972289
  C   3.08625747565189      1.21917297002915     -0.61456642217586
  C   4.45489070643234      1.17824628017777     -1.09921159566650
  C   5.49392579969958      1.12086181501503     -0.24391961102011
  N   5.29165870198991      1.04599227389938      1.09157480562271
  C   4.03293278109112      0.95600051483606      1.65141245035394
  C   4.05747779826060      0.84025230336066      3.06964804506927
  O   5.14586409617318      0.81716267621775      3.69505031660002
  C   2.74549645263952      3.93911744351010      0.40135965128637
  N   3.91249875172383      4.18760851619979      0.72383647300847
  N   1.59486517823290      3.88923100598541      0.06775159379499
  C   0.71266402070330      3.20377506356516     -0.76142732653298
  C   1.00895718933174      2.04788921008499     -1.45139314872574
  N   2.13715665019503      1.35175930210761     -1.54111833549036
  C   -0.57064169353679      3.79574415985525     -0.92179037679120
  C   -1.65854546604469      4.29463912720284     -1.07146133832604
  H   4.60928866800572      1.26273356314282     -2.16372432212489
  H   6.52483007502526      1.14602043891805     -0.56922589717838
  H   6.03867078716291      1.00143375457623      1.77402106420102
  H   3.09795218996524      0.77873871448989      3.58999993446258
  H   4.25910704556332      3.65609285461812      1.51851199825061
  H   0.21262386951927      1.72293222757757     -2.11874731897190
  H   -2.61705217431184      4.73344644081498     -1.19826299065187
