23
Coordinates from ORCA-job 5991optt
  Br  1.61588467353446     -0.39855650287172     -0.03974188307135
  C   2.34680804364707      1.42683115157339     -0.39154344541904
  C   3.35903397963397      1.49054736564232     -1.49249456561036
  C   4.68470084939186      1.12900147709077     -1.27940787506178
  C   5.05490433698609      1.03185566289057      0.06320798027187
  N   4.17404710744888      1.41828580215343      1.07039437132388
  C   2.91065467643425      1.94919420719704      0.89644474810468
  C   2.45191395988629      2.82988604534367      1.82685816770814
  S   0.91873090776795      3.52515054814013      2.35688938303123
  C   0.03401592072963      4.33942225652202      1.00297719892257
  O   -0.67532133684446      5.27942312798349      1.20410122182752
  C   0.16270020132293      3.47312441379927     -0.20183899999838
  N   1.20835502722531      3.49196443694290     -0.89974624273450
  C   1.49761294234277      2.18029518098822     -1.45925166304340
  N   2.60317449850177      2.08368202648589     -2.40920640614657
  C   6.35232721642391      0.66958093479357      0.51596941446679
  O   6.70380592245952      0.68187020717477      1.70605181816836
  H   5.42571181964320      1.04098462529318     -2.06111550923375
  H   4.61177809916600      1.46235649950924      1.98149970252300
  H   3.19799321876832      3.14366765842155      2.54775346678289
  H   -0.54091137042210      2.62522517688630     -0.20096834938814
  H   0.57876456426087      1.66141305058720     -1.75951455542938
  H   7.05931474169142      0.38379464745275     -0.28031797799429
