30
Coordinates from ORCA-job 5992optt
  Br  1.05444137174101     -0.46234641141415     -0.75930172032598
  C   2.95255819695173     -0.24373888922455     -0.57453556591799
  C   3.82930268608174     -1.34924098178088     -0.76429247997565
  C   5.17435759319820     -1.03287957546103     -0.39671199580132
  C   5.60575309932338      0.23163237411844     -0.15402096976038
  N   4.76300794201787      1.32227894278291     -0.22424828624664
  C   3.45480291497405      1.02036111726528     -0.37725845977559
  N   5.88617217657453     -2.27189374992600     -0.09525734426709
  C   5.37256242406085     -2.66616602490477      1.25477452651128
  C   3.86544516400884     -3.00600081121610      1.06932780618116
  C   3.71947541475657     -2.81997462142235     -0.47246134425119
  C   5.13891465073346     -3.23903920353323     -0.92760072824904
  O   2.61795137766904     -3.44015240834477     -1.09357595386409
  C   2.46513251715932     -4.81007478362520     -0.87120944939453
  C   1.30783577546606     -5.26322458001175     -1.75682673602090
  C   1.01787014145550     -6.68355050308511     -1.59042836365500
  C   0.80668623514741     -7.85260135223327     -1.42735746881750
  H   6.64041450712029      0.42172777543850      0.11265055940475
  H   2.76327135566607      1.85799692752494     -0.35251405615404
  H   5.54837857552705     -1.85027298976160      1.95223323993278
  H   5.93444587147423     -3.54335574451956      1.58363517886561
  H   3.20312320561708     -2.31968144037304      1.59700919044616
  H   3.65403717840664     -4.02555296778722      1.40229732500395
  H   5.29458435082394     -3.05656604640681     -1.98942447289460
  H   5.42030197393313     -4.26037936107300     -0.65795465855155
  H   2.22276818730221     -5.03150295300461      0.17424689318190
  H   3.37289500208208     -5.36911391300254     -1.13086532225931
  H   1.55068317979794     -5.04850961762928     -2.79891672611749
  H   0.42832255870103     -4.66796782290987     -1.50332571868397
  H   0.61550437222865     -8.88821038447934     -1.28408689854375
