23
Coordinates from ORCA-job 5997optt
  Br  4.51467667375226     -1.77656236870306      2.24797417128867
  C   4.33878723360389     -0.58710889737944      0.79569159942791
  C   4.98342256366627      0.60815392445513      0.73560809991193
  C   4.91628902062935      1.42697078877972     -0.46006377957254
  C   4.00673413132887      1.02932268503014     -1.39505204041395
  N   3.27384468753907     -0.11969289457885     -1.25147166848104
  C   3.44454777230196     -1.06246602981948     -0.26054574174220
  N   2.85685706997701     -2.20639438445230     -0.22746725357070
  C   5.79805629465899      2.55785971954806     -0.72656870127219
  C   7.09589053452575      2.74690644587778     -0.21401565930545
  C   7.73110773426106      2.22477807051871      0.92358124029358
  O   8.91632797040106      2.41648080777700      1.23537681765168
  N   6.96091458945536      1.52392533662638      1.91558346723165
  C   5.66394422136058      1.13068435982923      1.98483636294726
  O   5.06255492628581      1.11668353322871      3.04161940085863
  C   5.43023803740690      3.38126250558150     -1.81568307685110
  C   5.11370023551434      4.06291070493457     -2.76486442147360
  H   3.84199724045569      1.58470716572604     -2.30587786129059
  H   2.62300330297818     -0.35795868089914     -1.98184340238867
  H   2.26889065547252     -2.33363358896416     -1.04886546574259
  H   7.73103830643545      3.43107290299902     -0.76125594473562
  H   7.36988738532181      1.66083564646120      2.83204778770343
  H   4.84128941266772      4.69226224742323     -3.57574393047451
