24
Coordinates from ORCA-job 5999optt
  Br  0.97447775445060     -0.05491065409022     -0.07190908762892
  C   2.87024777527117     -0.05947631113254     -0.06999730491731
  C   3.58184912440119     -1.25452683688905     -0.06934980152664
  C   5.03972687871855     -1.19376662497143     -0.06857506516578
  C   5.65867604243432      0.00163996237288     -0.06822171670540
  N   4.90203217919329      1.15279733077469     -0.06857905281274
  C   3.50423629131308      1.22355248494352     -0.06948257490470
  N   2.86767931964134      2.35781939516920     -0.06976977753955
  C   5.55684997178927     -2.54978258031424     -0.06827287473672
  C   6.92060024233433     -2.95382719649430     -0.06768202491962
  O   7.88931603303559     -2.19755118156535     -0.06730689538570
  C   4.45569773808579     -3.39603212249416     -0.06869833754310
  N   4.48130233174953     -4.77230999948226     -0.06850419651221
  C   3.31117587735092     -5.35257818796719     -0.06872940520858
  N   2.12912612443877     -4.71432269322900     -0.06909533377674
  C   2.01508107706446     -3.33060103761394     -0.06942514815435
  C   3.22728216434010     -2.62511108141060     -0.06927392977511
  H   6.73290524252390      0.11240835446180     -0.06763054512417
  H   5.37935547065165      2.03759552310277     -0.06812342835083
  H   3.52793208812226      3.13199971341937     -0.06928486605969
  H   7.07452019256633     -4.04805930482813     -0.06766476440839
  H   3.25318716930959     -6.43600868449947     -0.06859608706044
  H   1.29207170905885     -5.27082170397682     -0.06926621653623
  H   1.02467120215507     -2.91412656328550     -0.06956156524707
