15
Coordinates from ORCA-job 59optt
  C   12.07151183140342     11.40829673414781     10.00099098160818
  C   13.45462695750804     11.69439942970847     10.00110768463306
  C   14.01717771853563     12.98653496406376     10.00135452654406
  C   15.39050659273712     12.98656069829652     10.00139101780812
  C   15.95311034430153     11.69444837082010     10.00118634647493
  C   17.33623563254634     11.40839670103918     10.00116362644522
  H   13.39065234448505     13.86728637255769     10.00142658271114
  H   16.01698538937109     13.86734574166130     10.00149639219526
  H   10.81319548693746     10.02995134380504     10.00090685823352
  H   18.59459433676412     10.03008737454213     10.00074463344229
  O   11.14770857142745     12.21914589782499     10.00123295207379
  O   11.77748348238541     10.06038006671856     10.00087157528556
  O   18.26001287289554     12.21927441972511     10.00129918655407
  O   17.63030547311524     10.06048866147816     10.00077820549447
  S   14.70389296558646     10.47440322361113     10.00104943049627
