25
Coordinates from ORCA-job 6001optt
  Br  2.34402774045056     -0.25749126043965      1.41020449244467
  C   3.28000161682363      1.20336899569353      0.54514202474505
  C   3.41623093602036      1.30308078372184     -0.89078249504809
  C   4.63268850026162      0.78200734748536     -1.34276303531362
  C   5.64587529248714      0.46522186565039     -0.44496713528638
  N   5.57576512874162      0.98271970691097      0.89269660046137
  C   4.47581151489451      1.71492576342183      1.22277860811618
  N   4.56928879824099      2.85104172387489      1.85692207222827
  C   3.50502794064961      3.73438648796462      1.72048202754971
  C   2.17687801449600      3.52855867943964      1.77321267606992
  S   1.05606991692174      4.65062435762773      0.99602844888937
  C   0.94646468487362      4.02279436721312     -0.75664403862939
  N   0.54066287359408      4.78725919224852     -1.67831019016229
  C   1.40870005135417      2.64926118175002     -0.84279658328187
  C   2.51372515282763      2.24334525576636     -1.51652134671770
  C   6.84196569531613     -0.22077235534523     -0.80882983309486
  O   7.13436667216555     -0.65089163616204     -1.91748410719753
  H   4.84040576574515      0.60321936131519     -2.39241822965969
  H   6.44117546040918      1.36894900395041      1.24785729058442
  H   3.83792352325006      4.73213776254941      1.43616179206177
  H   1.76519436199181      2.59772341785066      2.14144597440393
  H   0.41003358985542      5.74116897664122     -1.34151820084668
  H   1.13929356671484      2.06017281602601      0.02307009547074
  H   2.84571217636880      2.77980953618259     -2.40087318494492
  H   7.56271102554572     -0.34162133133745      0.02990627715761
