24
Coordinates from ORCA-job 6002optt
  Br  3.13846061337500      0.05454896858401      2.45607470121442
  C   4.33058782051704     -0.12959364705350      0.99321654186029
  C   5.62021423482921      0.42743201668576      1.04561263575822
  C   6.33113542947561      0.39352364263070     -0.22267270713854
  C   6.12296792904271     -0.63289197263484     -1.06341658706392
  N   4.95298698150350     -1.35797568493577     -0.94480635310917
  C   3.92128540270598     -1.03497444578511     -0.04069239899752
  N   2.75217362352290     -1.59264809968938     -0.10724477467054
  C   7.19952102014484     -1.23886078289984     -1.89824262486052
  N   8.44259075635240     -1.32532711399040     -1.61414488708740
  C   8.88613741715605     -0.73072331470300     -0.40490188173027
  C   9.75056610458876      0.32490840006277     -0.33270981746281
  N   9.48011816583220      0.90877351475981      0.89876783188647
  C   8.43363069321261      0.21369734082675      1.46166703635618
  N   8.19600305971185     -0.88368919715127      0.76369424349347
  N   7.66377185991699      0.76687095531302      2.44144164494792
  C   6.33758271588288      0.72649713593067      2.24367800593875
  H   7.20557903642571      1.01141115959916     -0.35932742785368
  H   4.83482311068660     -2.20334474079514     -1.47695045600874
  H   2.70764617057393     -2.22037399805314     -0.90680893984390
  H   6.88764673224900     -1.72280480381181     -2.82762510163578
  H   10.43961569187624      0.73967428290482     -1.04593734526635
  H   9.74330421842051      1.83162926051493      1.19554079019429
  H   5.73665121199737      0.93324112369081      3.12378787107914
