22
Coordinates from ORCA-job 6005optt
  Br  2.47061417427953      0.51608157169684     -2.34244383993992
  C   2.48895208190183      1.31206148340215     -0.49752267193970
  C   3.77179030485209      1.99834054598738     -0.18926938854814
  C   4.88605291356449      1.24369822473336      0.23150222194058
  C   4.51642330978513      0.00677080113621      0.73904912674318
  N   3.26536060543498     -0.44079878028015      0.95522154491316
  C   2.21106696704178      0.24761655884320      0.49877185309511
  N   0.99495195568839     -0.12350285771796      0.91053512445739
  C   -0.13716066360854      0.41725352137666      0.59726850865417
  N   -0.41131673985335      1.55175573795556     -0.24897585839757
  C   -0.20231894681027      2.86191117819065      0.23149661396279
  N   -1.07956308432857      3.75915153687718      0.37977325950962
  O   1.08502773634328      3.14369797667803      0.49965382104412
  C   1.98715681810072      2.77076506555259     -0.53368863975105
  N   3.34757634800469      3.23509278789601     -0.23250651761145
  C   -1.32791323314381     -0.16201836917326      1.14187486560569
  N   -2.33437632221241     -0.58313647730436      1.51765240769689
  H   5.89318864940458      1.62329448760349      0.31517209513266
  H   5.29315111628975     -0.65636634140771      1.11011604474471
  H   -1.33438207871964      1.47188375410077     -0.65325409488239
  H   -2.01115286540587      3.37027301072867      0.26112020191467
  H   1.58587095339119      3.10717458312465     -1.49254667834453
