25
Coordinates from ORCA-job 6009optt
  Br  1.69795072320555     -0.13570323657712     -2.16243410051296
  C   3.24379596774072     -0.08452203079970     -0.98715197337809
  C   3.63061735499422     -1.21655942724593     -0.26978852928207
  C   4.93426197640375     -1.10064821784892      0.37507787303145
  C   5.43367785988803      0.22455493717427      0.49211477982594
  N   4.97593280188270      1.29069645316101     -0.11155115101835
  C   3.90985676155386      1.11422312498549     -0.94491245691937
  N   5.78435457448669     -2.05031704664025      0.84263757138069
  C   5.80623220683053     -3.30878123497718      0.61427605944216
  O   4.94470167737294     -3.98770707267582     -0.24804246142426
  C   3.72067822154066     -4.34516215377053      0.34201241736277
  C   2.75119968322529     -4.67379956224526     -0.77644295666366
  C   2.38087434255183     -3.27095407440392     -1.26692084660493
  C   2.66032163936369     -2.35900920524590     -0.01946708662275
  O   3.14539835373077     -3.24790014146356      0.98864920368050
  C   1.38236413789885     -1.84961524656133      0.54080284007706
  N   0.38942429998959     -1.49020100997104      0.98902276782452
  H   6.31559819610055      0.34254292076063      1.11734943799884
  H   3.60191653712681      1.95133479155994     -1.55599126984635
  H   6.56077581380074     -3.94495289006126      1.06300231976120
  H   3.86564930466180     -5.11638424886901      1.10354689141696
  H   1.88765576062149     -5.19418208005667     -0.36126268864098
  H   3.21238640497238     -5.28859655578893     -1.54711625650417
  H   1.34764689380540     -3.19037454853682     -1.59425906495961
  H   3.02772850625107     -2.94798224390215     -2.07815131942453
