25
Coordinates from ORCA-job 6012optt
  Br  1.46979292620542      0.95010582192395      1.81141574386783
  C   3.05777142274414      0.77272228508014      0.80286237556625
  C   3.61494674329488      1.83363415064172      0.16221637392027
  C   4.84894293062684      1.69116696913349     -0.55491237439272
  C   5.32857005578903      0.43469811706686     -0.69201574418899
  N   4.72330455183438     -0.63143880746042     -0.09121636917648
  C   3.61753991539820     -0.56930484000644      0.74427544984961
  N   3.12158843956118     -1.58150960577188      1.36607227922171
  C   5.58758563846599      2.80453314213023     -1.21613702238160
  O   5.99698050077645      2.63927331823339     -2.39637234618976
  C   6.00425461909812      3.95587284012034     -0.46119673874912
  N   6.82796665372646      4.85893960379081     -0.91275834770234
  N   5.71835301945509      4.09922112709736      0.94690866881553
  C   4.52861209723003      4.45455925879838      1.51164429013938
  C   3.27529462133266      4.13918814689447      1.13573755092176
  C   2.89352292735839      3.15465254252427      0.12509031966676
  N   1.91852802318070      3.24226879950099     -0.68768110703648
  H   6.20465762626704      0.22640022116072     -1.28988984653584
  H   5.12687236994000     -1.54522545705520     -0.22064255983140
  H   3.66036093270316     -2.42403352454935      1.17607874996195
  H   7.04739971135285      4.59409239142601     -1.87343669864992
  H   6.49755703859189      4.60217566798966      1.34621865299887
  H   4.64187359539753      5.09328879951275      2.38288804903933
  H   2.45924271642469      4.61902125326599      1.66134981910577
  H   1.49748092324472      4.16969777855168     -0.61249916824038
