23
Coordinates from ORCA-job 6013optt
  Br  1.72560414737264      0.39647715600063      2.00314003395444
  C   3.13006004019953      1.05731604181482      0.94913196012421
  C   3.11945104667459      1.20645237342030     -0.51139675404632
  C   4.42036221554502      0.80864513543923     -1.07322946696844
  C   5.50287674101970      1.02436828951728     -0.30640000759291
  N   5.39324152009603      1.66711316000683      0.94094470907687
  C   4.13956272300704      1.98837660412053      1.46571155682034
  N   4.02390162651328      3.08269534992440      2.12238995803237
  C   2.90836847695534      3.58401838235400      2.76210178272423
  O   2.48537173904131      3.19990075890740      3.81971486034291
  O   2.36836248809502      4.74036177680037      2.25582240760629
  C   2.57182400072466      5.18491336451040      0.95411703175235
  C   2.26122492408683      4.39426474147808     -0.08006797744261
  O   2.62823867172399      4.67713383669584     -1.39398256422565
  C   2.98832597154029      3.40569030787323     -1.93406797362863
  C   2.54696220175854      2.43886895146954     -0.83863867037455
  N   1.84785675112552      3.10373256019592      0.06889801016514
  H   4.54341546108476      0.36498438802579     -2.05532760486429
  H   6.50580006609937      0.72651681141630     -0.58315144236056
  H   6.10440223758192      2.34751744426750      1.16780245400281
  H   4.07238876748720      3.36137213204973     -2.08110087660707
  H   2.48423231186069      3.24896739361807     -2.88986020692611
  H   3.00316587040668      6.16831304009374      0.85944878043517
