20
Coordinates from ORCA-job 6016optt
  Br  5.43810656096493      4.19567942148008     -2.96196721395564
  C   5.49375751366589      4.41290707634880     -1.09377595875749
  C   6.19684006927229      3.51799775626502     -0.30431032287271
  C   6.18456174948112      3.71875040016420      1.12059551445329
  C   5.47891280021906      4.82869320432240      1.64031139213297
  N   4.82687829437325      5.67305813214269      0.90116865912203
  C   4.79090618417878      5.51079308569341     -0.48648137642335
  N   4.11212786692295      6.35455070157902     -1.22172734360116
  N   6.87085104819023      2.77963766899230      1.79595931075930
  C   7.31690352582545      1.96200393207555      0.81986167590638
  C   6.94245705417278      2.32561560064495     -0.45653285257038
  O   7.30298555973041      1.59383102927549     -1.57090512346762
  C   8.69469639273314      1.52238927778618     -1.56996525960669
  O   9.35249101284150      2.17805597492041     -2.31506830973952
  N   9.25980926044368      0.49956375580409     -0.78197665400278
  N   8.92582260270601      0.16326406490429      0.38263204467534
  N   8.06822933439710      0.82537724023482      1.12139092800763
  H   5.47782975545049      4.99191139493583      2.71621079971918
  H   3.70689734009750      7.03536601216245     -0.57851865843867
  H   8.04093607433337      0.50255427026799      2.07609874865987
