25
Coordinates from ORCA-job 6018optt
  Br  2.25661273803777     -1.62247007374845     -1.87880271826201
  C   3.57011922527223     -0.94432090806516     -0.70277349667741
  C   4.39411198656683     -1.76870371825285      0.03453554824104
  C   5.38662550884629     -1.14944717240176      0.91285352900773
  C   5.47446972443285      0.19131460198294      0.99268243680145
  N   4.62982678956536      0.96130643554915      0.24057012802711
  C   3.65202109338622      0.49294417957623     -0.64317038827555
  N   2.89879123661959      1.29221054171385     -1.33376233450805
  N   6.15576581399525     -2.08496852872093      1.59724477813399
  C   5.70800648079718     -3.22970828863508      1.16157308620864
  C   5.94686770282887     -4.63524410942325      1.52862278174991
  C   6.25778976302664     -5.41614202497512      0.48665775889647
  N   5.29634923697853     -6.36545465959672      0.13137315742703
  C   4.08818186661484     -5.72630687537129     -0.35164212747056
  N   3.15339866422791     -6.46574920469662     -0.86807319731871
  C   3.90754685905710     -4.28796596011079     -0.34300261465788
  C   4.61961795324192     -3.18120287877494      0.19184388887223
  H   6.18527266714321      0.70624354442677      1.62307871275037
  H   4.70435605832426      1.96188981791343      0.30976593117732
  H   3.12982866010233      2.26340269066396     -1.13735760446891
  H   5.21810318752329     -5.04447152893768      2.22590805301916
  H   6.95865300359051     -5.08227370134916     -0.27756692339986
  H   5.58283171967233     -7.10314941851809     -0.49718670931926
  H   3.40620390579736     -7.44991851789851     -0.79269051565719
  H   2.99764815435126     -4.04781424234991     -0.87268116029708
