25
Coordinates from ORCA-job 6023optt
  Br  1.00327657253495      1.04326865063542      0.26391198376560
  C   2.87372095977837      0.82549578925489      0.12411907435008
  C   3.76611307993214      1.85702159082230      0.21766804900335
  C   5.17142601775665      1.62812904234228     -0.07254705012667
  C   5.55315567109948      0.30430693949997     -0.16843395372812
  N   4.63513759704464     -0.71664611578518     -0.11387916280802
  C   3.27335654166853     -0.56393255173388     -0.06994158991036
  O   2.53591542439660     -1.53851748882189     -0.13564916657712
  C   6.15351889091475      2.66917392384627     -0.29993224255008
  C   7.59195889389112      2.23470671622094     -0.39338624631687
  C   8.26903446265783      1.67971561343720      0.82977696703809
  O   7.80110295620581      1.55149550248512      1.92599250520560
  N   5.98731927666669      3.91969809564908     -0.72026802910496
  C   4.84086711877006      4.60464059808803     -0.73300417898739
  C   3.64311605231437      4.34745704550728     -0.10816841775781
  C   3.32220479948588      3.20415288171511      0.70362537795396
  N   2.61009264792567      3.22161731750728      1.77716550425740
  H   6.57364085579275     -0.01925769997648     -0.28442921778019
  H   4.94212969023795     -1.67414110166694     -0.17893334587326
  H   8.17881512081289      3.10819278671903     -0.69341782741156
  H   7.76124756867105      1.49195342630801     -1.19240289920943
  H   9.32674982273078      1.37981889067415      0.64638402387318
  H   4.91976154262960      5.56495796052105     -1.23895392708690
  H   2.91471944554489      5.15231347323985     -0.08645043057390
  H   2.37961899053648      4.19037871351107      2.00115420035540
