28
Coordinates from ORCA-job 6027optt
  Br  1.06705625586579      1.92877176078410     -0.10221713693308
  C   2.87198289834281      1.34230537235739      0.03455194974694
  C   3.93825620959181      2.29249701545785      0.14785506794311
  C   5.29552877289331      1.71436640645768     -0.00468240665704
  C   5.42853920424856      0.37113277654176     -0.14429258611356
  N   4.37429369382450     -0.47368233695231     -0.16134819911638
  C   3.01842528846204     -0.04662133763532     -0.15434969290312
  O   2.16164099780349     -0.92005446619131     -0.32082972592037
  C   6.60532296148366      2.45005965096742      0.00892599034705
  O   7.70467675623408      1.93519012152595     -0.06336143572975
  C   6.26952933695875      3.89473826230397      0.10549095369565
  C   6.99577567885987      5.21890886952220      0.12675481705067
  C   5.83994771938228      6.23009208356658     -0.10321784794009
  C   4.48553458055816      5.87603665528007      0.55865080237870
  O   3.81540268276436      4.77448013987569     -0.06175767410897
  C   3.56921711084424      3.61621012875846      0.70930767891925
  N   2.94868423649115      3.71049394680099      1.81787373291124
  H   6.41724376844039     -0.05742934591888     -0.24426152723018
  H   4.49185371938713     -1.46187476007982     -0.31196306756531
  H   5.66386631885921      3.89618974205259      1.01184000160833
  H   5.55443905685959      3.97087217722633     -0.71035965183226
  H   7.74903664878888      5.32329036199546     -0.65569709578760
  H   7.48836439168512      5.39510402009283      1.08565528264667
  H   6.11758383076598      7.22960767414431      0.24324522931694
  H   5.65539260842757      6.30680053278055     -1.17829405897860
  H   3.83136477081578      6.74765584390790      0.47358019351396
  H   4.61977369389161      5.67149134199833      1.62609496267752
  H   2.60126680746981      4.66136736237917      1.95180544406027
