20
Coordinates from ORCA-job 6029optt
  Br  1.24093033819172      0.45432080888231     -0.34943886690413
  C   3.09815353221355      0.13809461515559     -0.04419167993315
  C   3.66439941216837     -1.13872797919891     -0.00125097443175
  C   5.09388735038937     -1.20669353153811      0.08755025730784
  C   5.79931852969664      0.02737755463299      0.29774614827012
  N   5.26318712012817      1.19143951472593      0.28772197327951
  C   3.87315037901114      1.34421609909996      0.04099301675135
  O   3.40755846911242      2.47761737698221     -0.07429469658886
  C   5.71316329600695     -2.40880292428963     -0.03023678447293
  O   5.00499008159543     -3.52396410312215     -0.36661964896964
  N   3.67711474616409     -3.58328133046829      0.11811028593436
  C   3.06684237551173     -2.44647657103825      0.18370176238672
  N   1.73422121602540     -2.50729160924655      0.62811361205827
  C   0.91885841627625     -3.58766515294691      0.69757183191669
  O   1.14006527775128     -4.74173101871345      0.45765598366666
  C   -0.44708733886933     -3.18549879607524      1.15543731411018
  N   -1.50690141810292     -2.92663531744921      1.50433372914576
  H   6.87651363942678     -0.02978830490284      0.46223961260663
  H   6.77552724257392     -2.58074753663580      0.07131178514821
  H   1.29610733472893     -1.60876179385359      0.78954533871817
