23
Coordinates from ORCA-job 6037optt
  Br  2.04975109805053     -0.25274219361923     -1.56914162297371
  C   3.25593908089394     -0.19254925936691     -0.11426287958490
  C   3.31690055224886      0.92396835507150      0.73570386397973
  C   4.17559397456260      0.79191033506704      1.84912393942774
  C   4.93013740166971     -0.35021444856231      1.99559121642442
  N   5.10649560918431     -1.21598991531115      0.98991474000728
  C   4.35938492237146     -1.04769827627834     -0.09085175747540
  S   5.23733786008908     -1.27211741674293     -1.66929283122445
  C   6.07635708256544      0.27482324453775     -1.37662715195739
  C   5.35726630131576      1.40357015737786     -1.22921275662153
  N   5.76410869372710      2.54678346050512     -0.58474932380833
  C   5.00998164584502      3.34842465300246      0.35463507527388
  O   5.70848499430316      4.10432517018839      1.01878775246261
  N   3.66562930661849      3.31664066144684      0.41794984628845
  C   2.84282769749786      2.25707891839789      0.34883984196816
  C   1.47365484488762      2.47556152756888      0.06864523229311
  C   0.29540132356155      2.67065606434666     -0.11618888265522
  H   4.25601783637509      1.61386532730755      2.54864296840632
  H   5.51466553021170     -0.52694441929528      2.89165348105663
  H   7.08054808462267      0.20192465538705     -0.97573188104296
  H   4.33516054517301      1.44197890645087     -1.58315260244614
  H   6.73502872286483      2.57548930667643     -0.30401662601179
  H   -0.73867310863993      2.83025518584383     -0.29725964178650
