23
Coordinates from ORCA-job 6043optt
  Br  0.95578639476861      0.63273665391741     -1.48077705888872
  C   2.74260728181071      0.44581904180381     -0.87359835673278
  C   3.15749394158694     -0.78749712081982     -0.38702925823802
  C   2.41144552346400     -2.09264203696637     -0.27502101909544
  C   3.31618839263392     -2.88019840362754      0.68688600059219
  N   4.65748936788426     -2.34147211114312      0.42510001838606
  C   4.45920670269702     -0.99691981894219      0.04170943018431
  C   5.41168824901247      0.02915616684221      0.02287679101427
  C   6.75734026840588      0.19724825018000      0.38939227857760
  C   7.09914892895297      1.54032868099678      0.15470361819626
  N   5.99413136026390      2.19742860125187     -0.36849178709059
  C   4.94940685978189      1.30500369841858     -0.45482796179042
  C   3.65551967344871      1.51306197585159     -0.89543802189317
  Br  3.18594855841366      3.25596920835159     -1.47433421958099
  N   8.30444274616853      1.96362105226285      0.45531211229480
  N   9.06905999427319      0.99182106550779      0.97110354090374
  S   8.18084231724204     -0.51305292356407      1.05542617347192
  H   2.35170019393930     -2.58522797671113     -1.25140941132094
  H   1.39598674955758     -1.98127778449635      0.10420855595397
  H   3.28440570346094     -3.95661364334972      0.51940353729147
  H   3.00502442648823     -2.67356878919970      1.71919363455766
  H   5.31409130178186     -2.45393514961402      1.18621995760929
  H   5.94804506396333      3.16621136304957     -0.62760855440249
