28
Coordinates from ORCA-job 6048optt
  Br  1.92271602611421      3.88074516266332     -2.03613219169993
  C   2.20505037671084      4.53923320549014     -0.26537887082505
  C   1.88562017393933      5.86273003805697      0.02672702445291
  C   1.16589850673738      6.88906699245319     -0.81088702578288
  C   1.74136751844172      8.19878843562579     -0.25340767697401
  N   1.99877382598590      7.89481208078937      1.16255957628054
  C   2.35235776923249      6.50699058979817      1.17696094016441
  C   3.05072370085732      5.76914738079563      2.13168334543696
  C   4.14811694359469      6.13802930186413      3.12487044244932
  C   5.11302270485577      4.91038187977233      3.03370287116894
  C   6.04816193287125      4.88238756422230      1.80187698352637
  O   6.15302006905420      3.51812198161577      1.39133036859754
  C   4.85091957279911      2.96593734748705      1.52303424784541
  N   4.03739268858251      2.94113743609468      0.38593879246520
  C   3.04874739089916      3.83082791501437      0.61992268062140
  C   3.12020415000098      4.41285731822402      1.91561424572286
  C   4.20233254018812      3.72689569316536      2.67363424028944
  H   0.08542166211546      6.83522528867060     -0.63592194789099
  H   1.33989469144875      6.77342180500728     -1.87964171726776
  H   1.06173917220317      9.04581536896568     -0.35482035499093
  H   2.67470335083415      8.42547760233650     -0.78649377518116
  H   2.72313155525389      8.47872121591167      1.56280217522596
  H   3.78572753509487      6.25706413415217      4.15111575846024
  H   4.64123788838875      7.07617476246332      2.84737565209652
  H   5.68603281449922      4.76756360538115      3.95250569984194
  H   7.05332574539542      5.25326475862971      2.00789131876999
  H   5.60210432200612      5.47536495465370      0.99110466231215
  H   3.87825537189516      3.12081618069555      3.52303253488463
