20
Coordinates from ORCA-job 6053optt
  Br  0.81951939732162     -0.11670924371922     -1.38663186682440
  C   2.72967618670248      0.15446828210838      0.00945918155308
  C   3.45886891177240      1.34142832031136      0.04145756307956
  C   3.13177902097070      2.71479601336646      0.06338778296408
  C   4.34946133852889      3.37602205846298      0.06679554859434
  N   5.42954001361531      2.54165018868012      0.04073138297415
  C   4.89831182031902      1.32161962331090      0.02806859450687
  C   5.56665312737934      0.07477067354692     -0.00261099379718
  C   4.80913858301202     -1.05963518758761      0.01012279161230
  N   3.43667370239996     -0.98955162048634     -0.00191399738807
  S   5.51786212496689     -2.64319129594287      0.18800083296340
  O   4.61916924642708     -3.59345467925832     -0.39409383813945
  O   5.94112648270992     -2.83629926094696      1.54414115745504
  N   6.89309063856699     -2.58080974950851     -0.71980904422151
  C   7.61149518797040     -1.52749369841881     -0.74309824182914
  S   7.30438338162451      0.07774928084046     -0.18532841965711
  H   2.14244440735176      3.14194021984694      0.05757749067475
  H   4.50252028764298      4.44680667794924      0.08702395865185
  H   2.93194802197376     -1.86490186332173     -0.09076941932052
  H   8.59333811874384     -1.60420473923338     -1.20951046385203
