21
Coordinates from ORCA-job 6057optt
  Br  1.67882293600438      0.64641856575373      1.68064388376403
  C   3.36921005541383      0.33786953748679      0.84110627081751
  C   3.71464805438560     -0.93217774025863      0.45340527482938
  C   3.13243175176069     -2.23076107869972      0.48335170442880
  C   4.09162095594043     -3.04443858729131     -0.07531387085985
  N   5.23270158699124     -2.38383024668522     -0.45356548324504
  C   5.01289097611324     -1.11110170736670     -0.14462804528691
  C   5.89452762973883      0.01493203052739     -0.30474401541976
  N   7.07473120269730     -0.14047124611922     -0.87310454235876
  C   8.10471483805094      0.72010929664148     -0.75211645276137
  N   9.15589960120793      0.60058238396778     -1.47953217675851
  N   8.08194613898068      1.70690942621239      0.30634074324217
  C   7.18422746243902      2.73743413386812      0.37410568452647
  O   7.45209869437613      3.82958343195202      0.79446194548453
  O   5.94841993815303      2.46593730512403     -0.10447423859697
  C   5.31638768090772      1.25932408315245      0.14177920946143
  N   4.13272120430328      1.41115887724896      0.67609157824562
  H   2.16026622300861     -2.50174129484595      0.86163796763526
  H   4.01983688305599     -4.11257500704648     -0.23121741187816
  H   9.82353370063277      1.33740537426622     -1.26727771329805
  H   8.99836248583822      2.01143246211187      0.60004968802818
