21
Coordinates from ORCA-job 6063optt
  Br  0.96799225203854     -0.47332241250611     -0.84987133972864
  C   2.80130104074050     -0.21538357973180     -0.45017791896148
  C   3.62592903960524     -1.28545926328697     -0.24631049505538
  C   3.41556012530978     -2.68315219892369     -0.24035519284193
  C   4.66878597515101     -3.22614599084519      0.03952028097917
  N   5.65364640087804     -2.32710687211634      0.20435882297512
  C   5.05770707279474     -1.12053918814428      0.03625611617562
  C   5.64649208828527      0.12819492572253      0.10819464581864
  Br  7.52552087557157      0.13977859450518      0.43996784425335
  C   4.98726535483459      1.34824949976272     -0.03403133903219
  S   3.25878284507110      1.44620695505619     -0.37631869606140
  C   5.56116068958215      2.65052814534523      0.08501279624674
  O   4.91244704884128      3.69163078437862     -0.03490454204579
  C   4.99903304755241     -4.66284012931258      0.14013496166800
  C   4.52025848804845     -5.63030631646084     -0.85836299882730
  O   3.93547876833914     -5.56539891502809      0.42560929562228
  H   2.48495053455176     -3.20790164100599     -0.37935886603333
  H   6.63745194296769      2.68080049020842      0.30174058378075
  H   5.92848757092548     -4.87895426013113      0.65622826827616
  H   5.09837373423462     -6.52655183810465     -1.06196761231653
  H   3.89837510467657     -5.26132678938122     -1.66736461489184
