22
Coordinates from ORCA-job 6064optt
  Br  1.53002973061119      0.48811697546724      1.49114350335666
  C   2.99895323076733      0.22429423154049      0.11170475744185
  C   3.58928541706106     -1.04986862452706      0.04132925375440
  C   3.14434529036112     -2.38292279400159      0.03356476693657
  C   4.30497322954204     -3.14690472955485     -0.11586902655900
  N   5.43042452150561     -2.40068513285729     -0.18082506520049
  C   4.99876382746891     -1.13698105414298     -0.08794964346069
  C   5.71598278692262      0.07882749838917      0.03759722641886
  Br  7.61309542272223      0.03327283068425      0.14947153164906
  N   5.20772809349690      1.25224414246135      0.12512260201950
  O   3.78580349959825      1.30408981573462      0.00943339162444
  C   1.73678120086863     -2.83372862174376      0.15784765328377
  C   0.78240764633139     -2.29281025637516     -0.90144574045797
  O   -0.15325811559179     -3.36823981514841     -1.04804694148867
  C   0.43987908820733     -4.51300272792324     -0.62996146180189
  N   -0.02814323441339     -5.67522382993736     -0.74526967563432
  O   1.62079796562539     -4.25373757817304     -0.05675985150832
  H   4.34998873115624     -4.22469127996312     -0.17692585410989
  H   1.33406278823556     -2.61986243745797      1.15362459600797
  H   1.29661236799968     -2.12759077441752     -1.84976341534961
  H   0.25603856584464     -1.39561225662286     -0.58754329401510
  H   -0.90855205432102     -5.62998358143086     -1.24847931290712
