27
Coordinates from ORCA-job 6068optt
  Br  0.90214671818660      0.20569618325779     -0.39967172309618
  C   2.78079652427433      0.06396564973224     -0.18471562961864
  C   3.50165614902260      1.24179145677385     -0.20212778719519
  C   3.05405761380376      2.67202842119344     -0.34672171435312
  C   4.31503877582187      3.43782420510227      0.08542821545864
  N   5.41554858206459      2.52323437825361     -0.25609500608676
  C   4.89212612772137      1.21707463614784     -0.15289591336040
  C   5.57211980339951      0.01561591866172     -0.06887658061219
  C   4.82313854463492     -1.15355193588283     -0.01349803632727
  C   3.42434006838620     -1.17860224154742     -0.07594127120159
  C   2.73295150977389     -2.47509421406096     -0.02562988721306
  C   3.13751870284718     -3.60948362740007     -0.69072505773707
  N   2.22863344299115     -4.57504693613013     -0.33143198794691
  C   1.31421951922823     -4.00713500908572      0.53487156181875
  C   0.27002797544632     -4.80240817816430      1.05928759651308
  O   0.15327988951815     -6.03703413728719      0.75955535527241
  N   1.62143055621557     -2.70669008058200      0.72984133106511
  H   2.18344239125765      2.91448765324184      0.26009223837394
  H   2.80043320610549      2.88213643005979     -1.39039062586432
  H   4.27639474362190      3.61801855040414      1.16677171591836
  H   4.43113720338327      4.39382084402458     -0.42396810089459
  H   6.26322458030347      2.67283971231501      0.27205886684563
  H   6.65411707839148     -0.01791645473032     -0.02647278811619
  H   5.32636160324080     -2.10524822963736      0.10248290822719
  H   3.94004098992861     -3.77787797145418     -1.38847186610653
  H   2.15068053014370     -5.53646266446762     -0.61568186417648
  H   -0.42986282971266     -4.29898235873799      1.73892605041337
