24
Coordinates from ORCA-job 6070optt
  Br  0.75400187726557      0.15615168613688      1.02691305383067
  C   2.83591534181664     -0.00626380004616     -0.22916255162839
  C   3.57288818913017      1.15294876408022     -0.12132130331779
  C   3.08427115902853      2.59215271769746     -0.07296123042574
  C   4.40267662465294      3.38353448298531     -0.24183907551816
  N   5.42053012904345      2.47264486743463      0.28791214959574
  C   4.95584302737644      1.17322668482930      0.10323725083351
  C   5.72641398517864      0.00767403694449      0.17525120820589
  C   7.12946959849936      0.03263343565933      0.36957366690789
  C   8.32153978610355      0.08977409676840      0.53101384071546
  C   4.96196134440495     -1.15749578723542      0.02779859272099
  C   3.58482901086277     -1.19148197156392     -0.15581651032934
  N   3.20852157322525     -2.53856528848873     -0.26656696158753
  C   4.30008875319352     -3.18594900487099     -0.15067922512783
  O   5.42764256267195     -2.43473097202730      0.02827506196966
  C   2.09592087361770      2.95424798956350     -1.08041163281207
  C   1.31096120739770      3.27299007145557     -1.92793384492442
  H   2.64726339799654      2.76846132714295      0.91671451235249
  H   4.39582074297198      4.32775339265738      0.30126448381596
  H   4.56030140397908      3.58384261987882     -1.30734027010861
  H   6.37748990249542      2.64059077643103      0.01130692858210
  H   9.37223281613289      0.12526545380079      0.68241725929335
  H   4.44828573262222     -4.25365672113663     -0.17386849866610
  H   0.58613096033263      3.51525114190307     -2.66577690437772
