27
Coordinates from ORCA-job 6071optt
  Br  0.58058285109022      0.34456118159744      0.67274272165447
  C   3.08963515288692      0.08963435785356     -0.08786285542975
  C   3.74085963868483     -1.10943492983935     -0.06932445157457
  C   3.22500436685549     -2.52807655920618     -0.05043762514957
  C   4.48245868901169     -3.32733669862630     -0.43555677851934
  N   5.59116252795110     -2.47989292825913      0.03329678071931
  C   5.13871402392736     -1.15834997347032     -0.02100882953409
  C   5.89729274670414      0.00877186160188     -0.00170731553780
  C   7.31946798275631     -0.06335147787074      0.02873613471330
  C   8.51993343556415     -0.15548543020927      0.05237415443893
  C   5.21347082310371      1.24415356298991     -0.00790325176653
  C   3.82997964267619      1.27150132417757     -0.03885051057579
  N   3.16848088516858      2.51110348806494     -0.00930484683798
  C   3.76625956456279      3.69374453223969     -0.30507221640553
  O   3.16680423856105      4.75121154460111     -0.41951993445763
  N   5.13190555794633      3.60903863654111     -0.50959717410518
  C   5.94531521752325      2.55310812938285      0.07487409057194
  H   2.39052644182365     -2.68663847045614     -0.73038016085572
  H   2.88730895571656     -2.78248140148132      0.95779716586516
  H   4.52213242123613     -3.45132798815112     -1.52503595771628
  H   4.52738735321300     -4.31165841497961      0.02968272259058
  H   6.49497897004914     -2.64621378783077     -0.38659278612396
  H   9.57925577287665     -0.22976148299969      0.08564849290375
  H   2.15842207115361      2.48218279123763      0.07651383524483
  H   5.54642435572528      4.52483591664298     -0.57285237446557
  H   6.19324828703848      2.76925558339685      1.12501783663310
  H   6.88798802619305      2.49290663305238     -0.47167686628008
