26
Coordinates from ORCA-job 6084optt
  Br  1.12947412007665      0.04543191672955      0.01420719420045
  C   3.08245918499044     -0.09804573601299     -0.72568892059417
  C   3.66293065831224     -1.36501902318387     -0.60421629416232
  C   3.19775705085853     -2.70474033360237     -0.79583322668326
  C   4.24746227534560     -3.53557974928485     -0.56418683722498
  N   5.37731097707781     -2.76380003629762     -0.26708463755177
  C   5.02064287184063     -1.43457966205230     -0.22319973310702
  C   5.75946497867049     -0.32688361224602      0.15357441175254
  C   5.11777407036265      0.94332829874157      0.12417833070254
  N   5.55364469572959      2.10193684309186      0.46970734272376
  O   3.81661067138368      0.97794882273187     -0.39168055380028
  C   4.35502786523312     -5.01858673596533     -0.71127930431133
  C   4.89372329417054     -5.45209088293827     -2.10686484670262
  C   3.95002484441029     -5.14464264433363     -3.17324220703147
  C   3.14717488569844     -4.88930565422920     -4.02460527780796
  C   5.22569927529550     -5.59862700803019      0.31863542143519
  C   5.98543226274518     -6.04729542704963      1.13118075759162
  H   2.20280458901874     -3.00513595147698     -1.08324372865647
  H   6.19178207040190     -3.13869679297310      0.18941734160473
  H   6.78132958345198     -0.38841529995181      0.49855832556759
  H   6.50609996302224      1.99418058029163      0.80711556042294
  H   3.35332930131747     -5.43886255425237     -0.59588288183573
  H   5.09820183487170     -6.52522529702630     -2.09823521298415
  H   5.83918415080553     -4.93604112021545     -2.28526708164435
  H   2.43610942762104     -4.63637261893635     -4.77328516778969
  H   6.64254509728767     -6.44488032152769      1.86622122588628
