23
Coordinates from ORCA-job 6085optt
  Br  1.61132365315959      0.54170256697042      1.35736427786805
  C   3.09099121077414      0.24003737805091      0.08010996537177
  C   3.58370578106487     -1.07041450544616     -0.09905196616987
  C   2.99798057556144     -2.34728876099632     -0.21092273902831
  C   4.06355880697295     -3.20675865482175     -0.47293708089810
  N   5.26503825992979     -2.57789843269967     -0.52862565583758
  C   4.97745693644460     -1.28729155211824     -0.29961681292078
  C   5.86930252328601     -0.18062194621778     -0.19433531271750
  C   5.34797356090471      1.03252477352156      0.05442920507021
  O   4.00728682913956      1.26599326057103      0.18110041794612
  C   6.12533150222829      2.29880729252763      0.16909421236697
  N   5.77375803095996      3.29301122406471     -0.84236649909954
  C   5.10433127174052      4.35215878972934     -0.31358477989443
  O   4.54932637965624      5.25368650430791     -0.86427104942258
  O   5.19754562199913      4.27000812112676      1.06209021456465
  C   5.81734693082522      3.09942248983187      1.42566184699588
  N   6.09262736758615      2.76727739783017      2.59646683570874
  H   1.95418773350695     -2.59908695610870     -0.10786293133172
  H   4.00543787665122     -4.27719139691198     -0.62320544229863
  H   6.94062781086492     -0.30056884283662     -0.29038266284435
  H   7.18828654084386      2.05877069426234      0.14446510695769
  H   5.53052307490487      3.00779319123154     -1.77769752635948
  H   5.76905172099491      3.46692736413098      3.26207837597279
