22
Coordinates from ORCA-job 6086optt
  Br  1.14506587309626      0.36116867074124     -0.04166095698510
  C   2.99953158786991      0.06121417845046      0.02290924109980
  C   3.58538906733264     -1.17621500580555      0.05231109781768
  C   3.15868014228127     -2.52271760915276      0.06642490970329
  C   4.34800250888058     -3.26368400446693      0.10215555122840
  N   5.47278339260202     -2.52805719600516      0.11098884459980
  C   5.03494294057053     -1.24217462175670      0.08052076491053
  C   5.75684674232103     -0.05036637347956      0.07192701322933
  C   5.09875666966532      1.15135659394918      0.04273463504225
  O   3.71201838003225      1.23023164973949      0.02034499086506
  C   5.72531334555872      2.43621597120076      0.03324386064459
  N   7.05775055400406      2.60021253924859      0.02232377621548
  N   7.21486365647324      3.91135945721600      0.01960095308238
  N   6.13625894941643      4.64326321135874      0.02625002058493
  C   5.14639566123845      3.74390291401570      0.03556556766765
  C   3.78903671573666      4.15603339664704      0.05356177409712
  C   2.64399253017160      4.51357351692559      0.06953158070901
  H   2.14600581372289     -2.89174331509119      0.05406140256113
  H   4.41390398727501     -4.34562979355237      0.12257132217958
  H   6.83882743007648     -0.04116267079711      0.08874998184755
  H   8.12975045286496      4.32712559343893      0.01059198217439
  H   1.62088359880961      4.79909289717560      0.08429168672516
