22
Coordinates from ORCA-job 6087optt
  Br  1.08382475133024      0.14053377967905      0.01231073961856
  C   2.94068314584293     -0.14817449428908     -0.04550445303305
  C   3.53569559639273     -1.37744346876267     -0.09249012699219
  C   3.08202282509199     -2.72372351027443     -0.04992871298309
  C   4.23875086738242     -3.46562203804353     -0.00634635235651
  N   5.38668480943654     -2.70823643508976     -0.02714901958239
  C   4.98486224604932     -1.45248543948722     -0.09332870226705
  C   5.75017573692274     -0.22232473477476     -0.09254007295064
  C   4.99321126811821      0.92990739741733     -0.00045388397966
  O   3.64758673119834      0.96160310684446      0.00909314164162
  C   7.18251310782201     -0.03367094086915     -0.07212524601967
  O   7.69004269782359      1.05612603918051      0.31209725705664
  C   8.08985457707489     -1.08080463656583     -0.53380155438775
  C   9.41092778961839     -1.30463409661163     -0.28400644155078
  N   9.84567133686312     -2.38631734139115     -1.03049315724705
  C   8.79899395420704     -2.74751434902191     -1.69064986226639
  O   7.70779515880027     -2.00918468124738     -1.45997023750254
  H   2.06110659052114     -3.06870406846532     -0.03718935006383
  H   4.31354544390071     -4.54328764076405      0.04641511701380
  H   5.42653729027699      1.91337150486224      0.06854006006468
  H   10.05344212822122     -0.75849490081146      0.38297162223614
  H   8.70007194710508     -3.55991905151426     -2.39145076444883
