26
Coordinates from ORCA-job 6089optt
  Br  0.33081342589274      0.13979287016852      0.64758192961311
  C   2.73973894588414     -0.11664373656604     -0.24430469293111
  C   3.50916657637813      1.01719367644486     -0.19826289825419
  C   3.08025241924108      2.46349541298408     -0.23960008071428
  C   4.34447062776426      3.18970307604623      0.23940085427065
  N   5.44323312905525      2.28715249846341     -0.14309641014686
  C   4.92391827738518      0.98568729114786     -0.13402936527434
  C   5.64108468690917     -0.20329619952863     -0.10787307943894
  C   7.12357129764493     -0.28801054411594     -0.05802833790778
  O   7.63466420837931     -0.52953265462451      1.29387917710061
  C   7.84473307856105      0.50966853341664      2.06935172889157
  O   7.71067756080418      1.67097594760926      1.78536317570313
  C   4.85131928544997     -1.36618580330875     -0.15565577005669
  C   3.46488591121423     -1.29459993090117     -0.21035681496863
  O   3.00535466370603     -2.59534744369260     -0.25308233256058
  C   4.11824917633056     -3.33921155751817     -0.22374316920874
  N   5.23824103030334     -2.70638151172715     -0.16780907352511
  H   2.20555421749487      2.64531200929454      0.38248179736765
  H   2.83065267673313      2.75074789156606     -1.26544379102510
  H   4.31171844704619      3.31134957002389      1.32906702791980
  H   4.47706853535460      4.17183027903271     -0.21458691136234
  H   6.28802590105802      2.39615910969315      0.40339276393123
  H   7.59329237330542      0.61860070453483     -0.43854206326463
  H   7.47568105419244     -1.15798181324828     -0.60702010608102
  H   8.19202077951167      0.17067918617069      3.05441289076802
  H   3.98061171439985     -4.40915686136550     -0.24949644884543
