25
Coordinates from ORCA-job 6093optt
  Br  1.04304451299436      0.32222534690491      1.81071442733847
  C   2.89981632229599     -0.04676890435234      0.17829831866390
  C   3.49341963015347     -1.27359263936732     -0.02125584316426
  C   3.01404270555748     -2.63181114864161      0.00160640270803
  C   4.07767529741449     -3.41191256645959     -0.27903480557103
  N   5.23174715963250     -2.63320074282360     -0.44752747968342
  C   4.88247384390085     -1.30332149825981     -0.32235952572283
  C   5.66750121122330     -0.17585239824004     -0.44503361978216
  C   5.05980760116666      1.09412615345225     -0.24247633493229
  O   5.59509482895858      2.20279775944855     -0.31187679546651
  N   3.67666361341902      1.03355749320899      0.07265873158798
  N   4.20626377602235     -4.80452727714866     -0.36830008005756
  C   5.27882522286194     -5.53988496819756      0.11380073091441
  N   5.22881467883634     -6.79988060135452     -0.04617264742236
  C   3.95401940331424     -7.05592370771345     -0.71296837789133
  C   3.27399537562873     -5.70418587663313     -0.88350003340326
  N   2.14548688864278     -5.37369123217496     -1.34628607268164
  H   2.01279046148656     -2.96269729709380      0.21431169943130
  H   6.04560648684707     -2.94930420659751     -0.94709915447447
  H   6.72311417970861     -0.20667069013051     -0.67270844751907
  H   3.26301163979798      1.93979236334986      0.25674824848609
  H   6.09130295787038     -5.01339176202084      0.60028607902311
  H   3.33829939358925     -7.72803726586401     -0.11256437215158
  H   4.11782109161455     -7.53073002582205     -1.68302209094709
  H   1.64236171706229     -6.19711430746904     -1.66723895728240
