26
Coordinates from ORCA-job 6094optt
  Br  1.85970597294084      1.34632912192238      1.54983992026316
  C   3.42520046946154      0.37218345222924     -0.12438215680499
  C   3.60966365357079     -0.95085640697110      0.08523889564080
  C   2.67640835329144     -2.00673290482940      0.59946492945194
  C   3.64437344514860     -3.17961449996921      0.88771720940861
  N   4.82643449648279     -2.87396913844072      0.06911385208087
  C   4.87896678882619     -1.52136121766427     -0.18136152653074
  C   5.93039964851773     -0.76418798240634     -0.61699749026983
  C   5.73098086063508      0.63591435438598     -0.82408341119173
  O   6.54215837095798      1.44533118110319     -1.20560916910771
  O   4.43269729231663      1.12349832499268     -0.56093347802606
  C   1.56021308201803     -2.34988799091463     -0.37024184107496
  N   1.07365273373960     -1.63847092239010     -1.28384044110603
  O   1.03599998856956     -3.57762705778400     -0.09974099805013
  C   -0.09094806436994     -3.91987371253926     -0.88827672963370
  C   -0.55242354684264     -5.24952123018380     -0.49831405791112
  C   -0.95094372298804     -6.33895097340707     -0.20298168010916
  H   2.17884227433869     -1.67326417283424      1.51472087647330
  H   3.22083433184834     -4.14494469247682      0.62116722005728
  H   3.90233283656625     -3.18734251609772      1.95083164609613
  H   5.68831752196398     -3.35188006383160      0.27748757082647
  H   6.91601197738731     -1.15988202679676     -0.81182377281635
  H   1.56447616544359     -0.74541402549538     -1.32527019126064
  H   0.17449667704947     -3.90137030396097     -1.94750680329309
  H   -0.88029173486753     -3.17823952393265     -0.74667308524105
  H   -1.30255987200640     -7.30486507170733      0.06745471212872
