24
Coordinates from ORCA-job 6095optt
  Br  2.07378596014310      0.10464988821700      2.79563841831538
  C   3.26318015896574      0.18653942963027      0.67767944892340
  C   3.67979962439952     -1.04552234763268      0.27334587257594
  C   3.00770021631676     -2.36259209529431      0.36553848448718
  C   4.18741634345311     -3.34385756925907      0.20519582253551
  N   5.22582683125683     -2.54768508916630     -0.45911472364931
  C   5.00300610778800     -1.21080478928181     -0.19165542285067
  C   5.86813769623510     -0.15702215690314     -0.30288266132695
  C   5.41436503120781      1.14206638575216      0.07820901613034
  O   6.02809184298288      2.18048898842489      0.04344236770008
  O   4.08343535056710      1.22134121142990      0.56030295400235
  O   2.06242903558407     -2.53411456100356     -0.71678131037814
  C   1.27607106930788     -3.60776491693278     -0.59981633638568
  C   1.17455340889208     -4.57024456840200      0.35162986043327
  O   0.21509792386700     -5.45120497330527     -0.00035898959451
  N   -0.32817117826661     -5.07607751775321     -1.19501238250831
  C   0.29094771995632     -3.99152029759572     -1.55457659664682
  H   2.46206694924537     -2.48272015411298      1.30480592102197
  H   3.90906615593148     -4.21288539704197     -0.39191399243312
  H   4.52064254887651     -3.68090759581497      1.19242277005141
  H   6.17572120673153     -2.87964833944578     -0.41060735708105
  H   6.88996390425616     -0.24984000805017     -0.63880511998159
  H   1.67741593948867     -4.75426856976572      1.28442258668683
  H   0.03145015281352     -3.49340495669269     -2.47510863002749
