18
Coordinates from ORCA-job 60optt
  C   16.93416446185060     11.26779215389110     10.46370733735638
  C   16.19240297176769     12.48313865193904     10.45701355146617
  C   16.92514689385338     13.70492727879284     10.48350698530263
  C   18.29038487898701     13.70764568063839     10.51480828580751
  C   19.03214798600246     12.49230178361955     10.52150274307086
  C   18.29940268811277     11.27051236665150     10.49500617745002
  C   14.76659168581945     12.43645339808935     10.42387067122931
  C   20.45795972353061     12.53899200862687     10.55462031411468
  H   16.38233406888565     10.33618455320633     10.44283823769796
  H   18.84458185411548     10.33554100840852     10.49911266043087
  H   18.84221644667150     14.63925298209143     10.53568188734615
  H   16.37996896877414     14.63989923149581     10.47940566062896
  H   13.21623036048369     13.46563856109167     10.39338769626806
  H   22.00834373863345     11.50981887660331     10.58438637493505
  O   14.15712077801976     13.67738175899511     10.41603035502484
  O   21.06744873439690     11.29806849529974     10.56200417600484
  O   14.04785553528300     11.44035757108805     10.40226116595946
  O   21.17669822481232     13.53509363947129     10.57585571990617
