29
Coordinates from ORCA-job 6101optt
  Br  0.30183293646389     -0.42094528440962     -0.56018183591408
  C   2.87231985901327      0.09234845620870     -0.31185861972648
  C   3.57326779000179     -1.07154149832341     -0.23490749718221
  C   3.12934700934283     -2.48901782803654      0.01971014069285
  C   4.45623911741358     -3.17648339300299      0.37877188946288
  N   5.47113444853405     -2.39889637754643     -0.35858554869013
  C   4.96281999228523     -1.08453563791075     -0.45326204154921
  C   5.60336348956920      0.09179481055697     -0.75539246251315
  N   4.92138731903870      1.25263978390010     -0.83124055800435
  C   3.62159056311843      1.23514997159285     -0.61966531737023
  O   2.94181068707927      2.42432164713933     -0.69101512745813
  C   3.66744572474126      3.55391354477460     -1.08261857270907
  C   2.66570842480261      4.68374987324569     -1.30790442908784
  O   3.38289428905945      5.89309119602017     -1.03113896636767
  C   4.47723661636711      5.63298521722090     -0.26413377782754
  N   5.26609937972609      6.52369219381797      0.15004716861044
  C   4.58076993824892      4.15400695550681     -0.01463829995314
  H   2.69909507620951     -2.89800187588581     -0.89813662361223
  H   2.36940212626138     -2.56063649715839      0.79439419240471
  H   4.49007368620651     -4.22612422213488      0.08756569439960
  H   4.62267354158790     -3.10808645062040      1.46156352976343
  H   6.40049319603219     -2.45784466945156      0.03230389701685
  H   6.67117762830012      0.13996657782912     -0.94130978219355
  H   4.24199209042957      3.34295583699666     -1.98804167273144
  H   1.83400242868294      4.57635534342058     -0.60885751512038
  H   2.28439496525365      4.73950489176142     -2.32464351938609
  H   4.94582895968214      7.44121096115250     -0.15865692672702
  H   4.16947252377170      3.92665016314957      0.97258217097913
  H   5.60612619277638      3.80277631018676     -0.05374958920591
