22
Coordinates from ORCA-job 6106optt
  Br  1.25181807951653      0.38257309019246      0.52648616505273
  C   3.04814102273302     -0.04132874305109      0.15346719959031
  C   3.54947063214160     -1.32275182347562      0.07275898923416
  C   3.11144304185783     -2.63674704225828      0.18053300789992
  C   4.26490216445788     -3.43810743731833     -0.02746300182662
  N   5.39048758489068     -2.65131771612776     -0.26180169130490
  C   4.97995873978481     -1.40956174181176     -0.20558719941693
  C   5.71632265616551     -0.21003777758907     -0.37294395327733
  N   5.17077235436574      0.98074570432754     -0.28858656585474
  N   3.87091008689367      1.03220181434943     -0.03048037093865
  C   4.39483060231255     -4.85227199580895     -0.01725943354944
  C   5.63047654544051     -5.50142873276689     -0.21741081702746
  N   5.77447182841030     -6.84374295948533     -0.19827428631065
  C   4.72301656371060     -7.55341353007445      0.01137508171319
  O   3.46724751462663     -7.05241719317539      0.20761383780538
  C   3.23108550986203     -5.68416275364893      0.20387536727950
  O   2.08525997308013     -5.34753392633923      0.38159894509889
  H   2.11779787439443     -2.99545046283251      0.37909884285368
  H   6.77760369334322     -0.22715945656805     -0.58277259129754
  H   3.48796108815368      1.96081676553125      0.02663406072150
  H   6.51660840770312     -4.90988281233969     -0.39346510769445
  H   4.73741403615546     -8.63302126972934      0.04860352124945
