26
Coordinates from ORCA-job 6111optt
  Br  0.44379173613841     -0.05680542960741     -0.76421237614550
  C   2.90932096561519     -0.00855378957343      0.18231414985906
  C   3.62551184919954     -1.17122113224429      0.20822496258350
  C   3.16773968188950     -2.61101200151673      0.24035452158232
  C   4.44011514063628     -3.36329306798828     -0.18048062533181
  N   5.52865158399677     -2.48548940631295      0.28378831328326
  C   5.03819017475141     -1.17668471635555      0.21647711177976
  C   5.77147070655481     -0.00623365165894      0.18748235469598
  O   7.16026742936241     -0.04163699390085      0.19180474599941
  C   7.72201215884279      0.62041451598120     -0.91587958213318
  C   9.17285334352300      0.38967175505683     -0.91863158673837
  N   10.30539636903066      0.22287150878663     -0.95248317172359
  C   5.02333087407754      1.17280239209996      0.15952798802624
  C   3.62606344985691      1.18960021998750      0.14535281022209
  C   3.27484306463002      2.58809979846097      0.07826438881096
  C   4.43041016913283      3.27470123613096      0.06250524889364
  O   5.52546218464522      2.43878874280609      0.11178049187964
  H   2.32019863339407     -2.78224587608133     -0.42103497325697
  H   2.87126582135182     -2.89255061748938      1.25473282739834
  H   4.46297667854614     -3.46761069488853     -1.27237175912748
  H   4.52944284268096     -4.35243237093327      0.26799619521699
  H   6.43492911541559     -2.62966298598633     -0.13750821528963
  H   7.53669058559225      1.69707970994939     -0.87513982508468
  H   7.30732504672712      0.23667908308835     -1.85441271912132
  H   2.27437589312474      2.98500034133958      0.03568725283609
  H   4.66236450128391      4.32472343084979      0.01986147088526
