21
Coordinates from ORCA-job 6115optt
  Br  1.01731159069647     -0.16307630208049      0.06365087154222
  C   2.90622148951676      0.04127527361286      0.00866147458032
  C   3.69016554717429     -1.11891720259971      0.09937784976963
  C   3.31082762474053     -2.49205922342010      0.22672799480728
  C   4.45753959711322     -3.23740455294153      0.27895169241997
  N   5.54115479451573     -2.40671319731771      0.19128962454599
  C   5.10966994263652     -1.10343869597830      0.07976289870882
  C   5.92935149698396      0.01414524833843     -0.02850610939311
  S   5.17424434764797      1.59612058184771     -0.16324555262660
  C   3.38513489063937      1.36388308851165     -0.12177121817818
  N   2.65856631178080      2.42706201748313     -0.21123603274751
  C   7.33706275264171     -0.05205337353206     -0.03649379698475
  N   8.05841445970834     -1.16832460715581      0.04615775029240
  O   9.38092114307577     -0.76947119264492      0.00348684946822
  N   9.47948130040733      0.57504412286752     -0.10362954666977
  C   8.27762792667552      1.03283882485592     -0.13086508721891
  H   2.30180200719669     -2.86395240233030      0.27191315802843
  H   4.58757593039753     -4.30275187147631      0.37238843998323
  H   6.51853274194162     -2.65386763559088      0.20023236880664
  H   3.23038235451235      3.26245908627221     -0.30096476826838
  H   8.08501174999746      2.09020201327872     -0.21188886086593
