23
Coordinates from ORCA-job 6117optt
  Br  0.90512202263787     -0.42004346003113     -0.16711788432865
  C   2.79563091241161     -0.28908294827890      0.07652339357886
  C   3.56379568428128     -1.45942518070223     -0.16031852347174
  C   3.14928818822799     -2.76274174859147     -0.58614878113567
  C   4.27123138561656     -3.53984073486603     -0.61445478163108
  N   5.36246426834438     -2.82293225119667     -0.20263540267360
  C   4.96204501304902     -1.50574789808572      0.04875230175541
  C   5.76721111003938     -0.46373060426741      0.44176140206901
  S   5.08873819000625      1.11649115187294      0.72351391369624
  C   3.26133796998616      0.95551937503911      0.49442415658995
  O   2.64960018962029      1.99257401265217      0.73173283398928
  O   4.48987087543464     -4.85240390952760     -0.92866659489531
  C   3.33318629674766     -5.53496479095997     -1.35105611444251
  C   3.75280225707163     -6.80317419914371     -1.96112434685449
  C   4.07618954416496     -7.83506176573011     -2.47101761133666
  C   2.38257538975022     -5.77980345251865     -0.25012906479074
  C   1.60030801697228     -5.96685971728399      0.63450344868716
  H   2.13415171331497     -3.06963145069137     -0.77160601122647
  H   6.30970409641845     -3.11167207168368     -0.36744195319086
  H   6.82674924437587     -0.57294473247673      0.62541186453664
  H   2.82090034440240     -4.92859092269740     -2.11190935480315
  H   4.37115505338313     -8.75404945814398     -2.91650178748635
  H   0.90294223374295     -6.10388324268744      1.42550489736475
