20
Coordinates from ORCA-job 6118optt
  Br  0.85539685280101     -0.12519398694434      0.04666620512721
  C   2.74383453432252     -0.00779723547904      0.05505802107762
  C   3.45938457570918     -1.21329049690677      0.05899254248932
  C   3.13367087292553     -2.58878183231155      0.05904731691690
  C   4.35363181829899     -3.24128578119298      0.06243504430352
  N   5.43110430082141     -2.39113584013717      0.06465291356137
  C   4.88724146535363     -1.19171981919765      0.06272153479261
  N   5.54369652252515      0.02942677721568      0.06376928538175
  C   6.90933355857316      0.24776141594780      0.06733437101898
  O   7.79441769494730     -0.56510517775454      0.06933081343954
  C   7.08462439017029      1.75386339041265      0.06857060366502
  N   8.20215405356213      2.33540312276167      0.07094337406343
  C   5.71473629088766      2.37318358685544      0.06595550237496
  O   5.48513130340414      3.57966022336666      0.06714796512500
  C   4.81318160484023      1.25442512667477      0.06185866613772
  C   3.40632118651704      1.20510175108148      0.05645401406407
  Br  2.46411598729986      2.83951353067452      0.04991651071968
  H   2.14642660909115     -3.02039372406486      0.05685847096483
  H   4.52099981802363     -4.30896460943353      0.06346850907424
  H   8.93159655992592      1.61232957843177      0.07181833570226
