24
Coordinates from ORCA-job 6121optt
  Br  0.50229447009884      0.63602573722119      1.24675937774424
  C   2.73512179636121      0.39645762758693     -0.12593077899383
  C   3.51027488494949      1.51334462908684     -0.13111548338193
  C   3.18603717087490      2.98087189436851     -0.05225104197139
  C   4.55131722345816      3.59150458887880      0.32148753895286
  N   5.52450755049586      2.62470217978770     -0.20813738289565
  C   4.91493202674839      1.37206172972198     -0.20149555787000
  N   5.58399300138050      0.23892788303728     -0.25334988143646
  C   4.79416772334154     -0.84313742981724     -0.23610880454727
  C   3.39311614803564     -0.84177618958945     -0.17179949022081
  C   2.85680161786285     -2.17647585140742     -0.15570160264078
  N   1.47672529221958     -2.39011795527819     -0.09899656638570
  C   0.86307916454103     -3.48123474094257     -0.60952707570806
  O   -0.32170605588454     -3.72294559960120     -0.54202953096551
  C   3.82002710595278     -3.13171398206976     -0.20025371826358
  S   5.42006507919930     -2.46521407405826     -0.29077135190942
  H   2.40621274005982      3.18522549730591      0.67993007212548
  H   2.84757459096951      3.35334711207094     -1.02294561777210
  H   4.63605858044566      3.67176926572984      1.41143540990804
  H   4.70930459147986      4.57820729260789     -0.11304418734783
  H   6.45764175761717      2.64352748769354      0.17579058725426
  H   0.90910764398974     -1.63149981615465      0.29184346370466
  H   1.56683340992515     -4.15697799853184     -1.12479468837042
  H   3.69151248587744     -4.19987928764680     -0.14899368900880
