27
Coordinates from ORCA-job 6124optt
  Br  0.91014473669273     -0.08235917694047      0.30060123867797
  C   2.78676282501699     -0.04469311638599      0.01874480618359
  C   3.48156035314242      1.17431717187350     -0.14896455901225
  C   3.03853625560564      2.60498767545753     -0.17652653593791
  C   4.38443403501466      3.33648263784305     -0.00227416560681
  N   5.36572245906852      2.41402333952987     -0.58146822201807
  C   4.84490486707052      1.11376033222683     -0.38620831916371
  N   5.60997195921849      0.02796411062547     -0.44365908400849
  C   4.89880751547044     -1.11874898978085     -0.34003445028140
  C   3.52631834543830     -1.20253591542043     -0.06318803172959
  N   3.14331814845584     -2.53213650983083      0.19346541601102
  C   4.22054537029146     -3.33704471179705     -0.42014209013540
  C   3.95948443135194     -3.45655111379797     -1.90537630643166
  O   2.82207445505003     -3.66595119179254     -2.32614390786459
  C   5.47622926372184     -2.49693741435399     -0.13984259760133
  C   6.64316352435386     -2.84152535876910     -0.94584637466602
  C   7.62455155339678     -3.12260958824167     -1.57616456967782
  H   2.32596547001824      2.86512660232949      0.60868723908036
  H   2.57528801954166      2.86752151166943     -1.13712680685925
  H   4.57039877615314      3.49213968920356      1.06866781643434
  H   4.40994437946602      4.30407157814461     -0.50553479303024
  H   6.31196466287952      2.50714837824887     -0.23809250965736
  H   2.25636383063650     -2.77214950403844     -0.24347316360983
  H   4.25976180619718     -4.32257691712012      0.06263325180213
  H   4.82881662726182     -3.42904082149884     -2.57698771750498
  H   5.76359947707841     -2.63259107098228      0.91881744753372
  H   8.48736685240699     -3.35509162640164     -2.15056301092641
