23
Coordinates from ORCA-job 6125optt
  Br  1.40475733013789      0.32045491073506     -0.59442619325913
  C   3.26723972490252      0.22999142812619     -0.25628236444619
  C   3.88037301769651     -1.03375563342729     -0.11314918143088
  C   3.48588767027438     -2.39011206257848     -0.16539723686867
  C   4.64543448444590     -3.11486706585005      0.07377584229282
  N   5.74830559262733     -2.32174327060179      0.27406286046358
  C   5.27690235785336     -1.09069206558350      0.15850761706072
  N   6.00881387198907      0.06854789761787      0.27526575488341
  C   5.41215870586471      1.29354650275349      0.12197340142071
  C   4.01858395800991      1.39004373216961     -0.14962137944727
  N   3.43315085845785      2.64257666023658     -0.30775967174672
  C   4.18281522843078      3.67392689716766     -0.20210117764367
  N   5.52646635932538      3.64303571183650      0.06459756478869
  C   6.22965270484386      2.44163870229147      0.25154390868440
  N   7.50205256445358      2.37634824222764      0.51516400163812
  C   3.62491511059137      4.99350370996422     -0.37050037184919
  C   3.20279480765271      6.10738146497572     -0.50542245402423
  H   2.49382485753743     -2.76977454651488     -0.35207105412286
  H   4.74406893852109     -4.19088471864159      0.11278044869654
  H   6.99933197423984      0.05296741192840      0.47254777288160
  H   6.02954583395074      4.51171765386839      0.13468440721375
  H   7.92046855303709      3.30042750169821      0.57052999903042
  H   2.80145549515664      7.08372093560054     -0.63070249421597
