23
Coordinates from ORCA-job 6129optt
  Br  1.16013394434288     -0.03076003882123      1.56267917806960
  C   2.87146342315824     -0.26195026008536      0.02707666166832
  C   3.67487719842884     -1.39586733368021      0.04090044144524
  C   5.07765217729589     -1.26248813198341      0.00481044618368
  C   5.68115506942657     -2.64343162614626      0.05128415664145
  N   4.51007991626247     -3.49625471672471      0.10639897855292
  C   3.33714550508720     -2.80326143810119      0.08294806297822
  N   2.12991715536073     -3.29420239156270      0.08944571106245
  C   1.93858047436730     -4.63539914516812      0.12678697101383
  N   2.81182992307752     -5.61767340474779      0.11415748497708
  O   2.09216903327768     -6.78160979536810      0.15702851118156
  N   0.76154832116814     -6.52874441806904      0.19924064668004
  C   0.63655794638035     -5.24924841204625      0.18248759975755
  C   5.71533794656447     -0.06085695628871     -0.05770165977282
  C   4.92125004187240      1.13702262717293     -0.10546271165724
  O   5.33876343512794      2.28721475834663     -0.18598384348251
  N   3.53224133455536      0.91229511676106     -0.06501273062150
  H   6.31355948808628     -2.76917564579978      0.93434839874228
  H   6.28621783716733     -2.84990810638783     -0.83574128477116
  H   4.52690123403896     -4.50356495894968      0.10300130806408
  H   -0.32246814729823     -4.75993346817274      0.21323100680343
  H   6.79031297682125      0.04837383943395     -0.07879684422707
  H   2.98577376543030      1.76442390638862     -0.04712648928942
