29
Coordinates from ORCA-job 6132optt
  Br  3.83999375966946      1.43280854985993      2.86352201617852
  C   4.34147047166911      0.77234855826363      1.13297680109429
  C   5.03040305984787     -0.46940796641452      1.07056014593577
  C   5.67234852259615     -1.35436071416523      1.96818474128227
  C   6.12791076195404     -2.40957359062425      1.18338750048764
  N   5.82515662283479     -2.25774017285057     -0.14412169333050
  C   5.17385015786290     -1.10116103607455     -0.18733926380373
  N   4.66769524832662     -0.51246761192853     -1.33756632059112
  C   3.92147370322744      0.64832885884559     -1.23388868416450
  C   3.74854712147416      1.29942877719038     -0.03436713822166
  C   3.01654145012453      2.61600235876266     -0.03990372883961
  C   3.96982365308398      3.77407682703106      0.19330786069612
  C   5.09686545769499      3.90585556442492     -0.82421295991961
  C   5.37886536112749      5.40308947491842     -0.77606146671579
  C   4.01898396238970      5.98640678537970     -0.43988795032258
  N   3.57567043259598      7.16166472441169     -0.58208685781822
  O   3.24481020709330      5.02345796788301      0.08416730912410
  H   5.77207687647133     -1.23462458014391      3.03591924446533
  H   6.66443747295069     -3.28711589855821      1.51796025015204
  H   4.62394962714277     -1.07653003355274     -2.16875722951749
  H   3.53427192342617      1.05441816842000     -2.15800430375132
  H   2.24554308256889      2.63982571552780      0.73284202133061
  H   2.52949979389463      2.76462370164163     -1.00702401556943
  H   4.37777729315434      3.71775632585019      1.20564449861548
  H   4.73332135313421      3.60980177004573     -1.81091096525077
  H   5.94456092392874      3.27398697667737     -0.56959255128519
  H   5.77632038014459      5.82845281406052     -1.69583091236803
  H   6.06470973358711      5.64759011987754      0.03937169966769
  H   4.29412158602393      7.74205756524069     -1.00528804756030
