22
Coordinates from ORCA-job 6143optt
  Br  1.23586702096734      0.39031957909672      0.20564462847882
  C   3.11006955270639      0.15304362820860      0.07239097583879
  C   3.70082390403451     -1.05340007079755     -0.05312198593908
  C   3.32710832265498     -2.42286718973392     -0.14192099984616
  C   4.52969299383380     -3.08260150771624     -0.25858842559280
  N   5.64244611407536     -2.28726072203294     -0.25398099321693
  C   5.18168477379410     -1.04142442863327     -0.13196730328913
  N   5.91251877647279      0.07021687202411     -0.08525496722654
  C   5.25420101087467      1.22497891523205      0.03122427456165
  N   3.85416293501805      1.27283634307978      0.11099580868265
  C   5.82746131610506      2.51674956805372      0.09722801378997
  O   5.16254049926028      3.56770156521094      0.19010352151308
  O   7.21940480624567      2.49996457561130      0.11399873533385
  C   7.94456583680043      3.58786338553956     -0.22826972010364
  N   7.57546169186479      4.71155204214997     -0.66901332475130
  C   9.35654731196878      3.30703180638969     -0.02934949949692
  C   10.51922354079886      3.08054901653623      0.14248565002997
  H   2.33344164590791     -2.83878395248009     -0.12353486313362
  H   4.65123786677531     -4.15462910232565     -0.35249628015084
  H   3.45833769186890      2.19913764110418      0.20537222578813
  H   6.55658262107588      4.74578724212039     -0.69785577623579
  H   11.55061976689589      2.87223479336237      0.29191030496584
