27
Coordinates from ORCA-job 6145optt
  Br  0.63856420009793     -0.27922743800663      1.06625865430793
  C   2.82285350170014     -0.05873596496041     -0.12076797141983
  C   3.60644839930473     -1.15857693843531     -0.27462998410193
  C   3.29839351993632     -2.61087252256228     -0.46462799646303
  C   4.66587215755653     -3.26369966582845     -0.20018294589146
  N   5.64898563662862     -2.18404755503008     -0.35539566414175
  C   5.00310686777174     -0.94922701247772     -0.23656444665186
  N   5.62501559439684      0.18616757543605     -0.08737540110697
  C   4.83552606310443      1.30972773494214      0.06523024519017
  N   5.26701232809915      2.50847330019359      0.21892436891772
  N   3.44429046134907      1.11997602155900      0.05266627262033
  C   7.00601232784661     -2.44549074499092     -0.27695251376472
  C   7.98632713023443     -1.48002318136959     -0.58932940296139
  N   9.28678718591578     -1.72806377649429     -0.55718509869806
  C   9.70584874184017     -2.94444070041028     -0.20818552849337
  C   8.82919328983314     -3.96367136226446      0.11298709293114
  C   7.46528568911518     -3.71698908416213      0.07541236955158
  H   2.95857621381735     -2.82783036304708     -1.48097519076777
  H   2.53343237282128     -2.96503561022149      0.22576227556729
  H   4.89416544316362     -4.07418019318816     -0.89432306685362
  H   4.71746474941613     -3.66230112437060      0.81968084271806
  H   6.28213318342390      2.48127641695002      0.21509462989492
  H   2.89643021728778      1.95385719828214      0.20796022213880
  H   7.67727270526075     -0.48316557404308     -0.86339354073234
  H   10.77849829882815     -3.10328999791374     -0.19405400411948
  H   9.20140613498016     -4.94145322687112      0.39055618265248
  H   6.76909758626957     -4.50515621071497      0.32440959967714
