21
Coordinates from ORCA-job 6149optt
  Br  1.18742632724697      0.34441364737189      0.05862181267197
  C   3.02883936071668     -0.02748311710243      0.05901469131382
  C   3.56155024665920     -1.25177098869456      0.06340598719927
  C   3.13996388169453     -2.61973120682334      0.06977682702336
  C   4.31644881839472     -3.31793712333732      0.07272052527611
  N   5.46609940781124     -2.54999404490505      0.06872188902220
  C   5.03912892641821     -1.30472249618455      0.06288108068856
  N   5.78262431361810     -0.18952336958227      0.05733587611538
  C   5.14538091521505      0.94911231676392      0.05311187194637
  O   3.77325496718142      1.08406176916541      0.05437640325448
  N   5.76668612230537      2.14165302826200      0.04679161002630
  N   5.03503363119767      3.32236528824360      0.05140112974567
  N   5.90740726895489      4.29809468586209      0.04414063651189
  C   7.14658972200091      3.82293200806119      0.03476124565634
  C   7.13740854063744      2.42483698882394      0.03540608793308
  C   8.26437354838013      1.54152049828472      0.02236005363536
  O   9.41957916073054      1.97234858150102      0.00683949453073
  H   2.13241548156198     -2.99887989546493      0.07189068449306
  H   4.41167677188796     -4.39582651436660      0.07798925428672
  H   8.01588861868432      4.45757719073090      0.02790062806800
  H   8.06122396870261      0.46595275339036      0.02655221060134
