22
Coordinates from ORCA-job 6150optt
  Br  1.06674108652622     -0.16206798407823     -0.14182892084473
  C   2.95049006942765      0.04874567344214     -0.05440382987762
  C   3.66968265813886     -1.13485226330005      0.12840870251992
  C   3.35570546396061     -2.51291477851446      0.30077732669042
  C   4.57337162280561     -3.14876212277987      0.37767423257397
  N   5.64399401128809     -2.28548871061705      0.26187836642023
  C   5.08351060577024     -1.10243162906223      0.12260703950968
  N   5.77767418177450      0.10612218631089     -0.07699352388946
  C   7.09261945173332      0.01429991134738     -0.47813748079525
  O   7.82816124477214      0.93960970183922     -0.76055882575801
  C   5.04871635451361      1.31459811288869      0.04974747962402
  C   3.61636939750239      1.27825482940158     -0.08447331721776
  C   2.86488139297154      2.53403863691483     -0.26160709119288
  O   1.73535534999607      2.62502179288537     -0.68276229766588
  S   3.61384514942318      4.09385746908156      0.17702962060852
  C   5.25635059761046      3.71469886228996      0.53109192950238
  C   5.77879951246149      2.47414485916338      0.39446195743603
  H   2.37185343446060     -2.94700602245725      0.36786417499181
  H   4.75490483605497     -4.20405229519026      0.52279777419449
  H   7.40219476262000     -1.03442044823170     -0.51613292463030
  H   5.85958244634267      4.55532384377103      0.84177686700488
  H   6.83419636984570      2.35228037489506      0.57778274079554
