21
Coordinates from ORCA-job 6161optt
  Br  1.12940703710126      0.37777031696685      0.89118168545719
  C   2.92958964650567      0.12853117807407      0.31596523002525
  C   3.42700021466473     -1.17491553031672      0.12904218600733
  C   3.04791953637237     -2.50844078530415      0.22152494382240
  C   4.19406509111775     -3.24346845885289     -0.14400906937513
  N   5.26874160948593     -2.42518884087852     -0.46347593487621
  C   4.79321183712475     -1.21460361875988     -0.29661313556675
  N   5.43483634717756     -0.03321374960714     -0.47909058823376
  N   4.87142843773287      1.20472424531757     -0.27825186705137
  N   3.63188711815100      1.21943743144108      0.11715225851449
  C   4.30209863518393     -4.65630750980484     -0.18933454106514
  C   5.38226979343141     -5.47912947220124     -0.48639012528683
  O   4.94025697023015     -6.78575327588777     -0.37549128939864
  C   3.65851541958969     -6.67234137735159     -0.03055120503611
  N   3.20809386160200     -5.47906044293015      0.10079946934514
  C   6.75179943408863     -5.23719537862874     -0.83067710747570
  O   7.58030023778223     -6.11277248165433     -1.03645340953736
  H   2.09387539077431     -2.91406973281575      0.51388434303973
  H   6.39471273427089     -0.00439888825460     -0.77852779365723
  H   3.11121715838127     -7.59241794991218      0.10613067804202
  H   6.99877348923155     -4.16818567863906     -0.89181472769332
