25
Coordinates from ORCA-job 6166optt
  Br  0.95208530603194     -0.08052419759507      0.26305648001259
  C   2.84457818438275      0.03420579770052      0.08228537938624
  C   3.58576694203045     -1.15567604729604      0.06509053540225
  C   3.09537923083064     -2.56358494270462      0.23319489064137
  C   4.34639027759425     -3.38952928629187     -0.14363818522409
  N   5.45347096971103     -2.50188152483919      0.22106568259138
  C   4.99188248225661     -1.16583040566306      0.06266950286527
  N   5.84442652693559     -0.18809301517265     -0.03040756196606
  S   5.20836907026805      1.36375852150992     -0.19398176382470
  C   3.41399987651649      1.32389378391791     -0.00302964039848
  N   2.77383881318487      2.44566735297535      0.01705581173495
  C   4.35930187788857     -3.74220555466101     -1.59544832235398
  C   4.51181579370997     -4.91940602824687     -2.20260022846622
  O   4.46972181517344     -4.74989407638251     -3.57669886575333
  C   4.28625660500769     -3.41363630293855     -3.83310808836121
  N   4.19395991968538     -2.87661487579729     -4.97667832620514
  N   4.22370720155768     -2.80054259273200     -2.61184569773218
  H   2.24139373777301     -2.81409070708222     -0.39939130172774
  H   2.80450526030007     -2.77293145995851      1.27024624323531
  H   4.40143739926763     -4.32390504734223      0.41777286600749
  H   6.32206129911522     -2.67489768360527     -0.26966475922225
  H   3.41835283438605      3.23109885215954     -0.05051039415388
  H   4.65016793563688     -5.91673542407961     -1.82898813670677
  H   4.27030515208648     -3.58254823502785     -5.70064339433635
  H   4.07882548866915     -1.81109690084681     -2.47280272544444
