22
Coordinates from ORCA-job 6169optt
  Br  5.21772243043494     -0.50627306279052     -3.05503951887298
  C   5.25538371087631     -0.32476932983567     -1.16206748854702
  C   4.42322712496727     -1.15506522607362     -0.41881047135233
  C   3.47403849785009     -2.17952937258756     -0.63468105658883
  C   3.07994896832430     -2.55924588123951      0.63829830701380
  N   3.70220183027780     -1.86009853944281      1.64623103734404
  C   4.49009766135956     -1.03526428775659      0.99843859808548
  O   5.29671814530951     -0.14958542377898      1.59699019199245
  C   6.08171398340113      0.68273392371090      0.86657278848628
  C   6.09981270683774      0.59708261993938     -0.54563665531233
  N   6.92604145768662      1.38065012578008     -1.35813634645182
  C   8.07276241783331      2.10214386943204     -1.05457614590695
  N   9.03365647233542      2.04704759744723     -1.89112551951322
  N   8.10529776486826      2.97926313180440      0.02992373046735
  C   7.54599654494625      2.74635246243652      1.15012111389587
  C   6.77637206519866      1.60935596116849      1.70593199655455
  O   6.69792479997913      1.57196853199949      2.94778350650027
  H   3.13849786035729     -2.57242151015691     -1.58049199780176
  H   2.35801836929791     -3.32344327203311      0.88945503488818
  H   7.01040466618112      1.01009171313575     -2.29509196939063
  H   9.72755275679134      2.73859669405114     -1.61954185988306
  H   7.68260976488594      3.50740927478984      1.91945272439264
