21
Coordinates from ORCA-job 6172optt
  Br  1.02281855859477      0.06045332221938     -0.06277668566014
  C   2.90493142024289     -0.10535138871486      0.05564875996444
  C   3.52804694946166     -1.36719083216131      0.10469018064189
  C   3.16463500043431     -2.72133119725736      0.11424363466676
  C   4.37375887741561     -3.42566876880033      0.18531989308667
  N   5.47405578446179     -2.59245860641377      0.21980240148668
  C   4.95763457877905     -1.39573729892688      0.17284298998782
  O   5.73265968742711     -0.27414624693917      0.19015288247562
  C   5.07638617577666      0.92151378614924      0.15293680591851
  C   3.71992967647075      1.03486492467070      0.08567125106180
  C   4.55009619479242     -4.84007104133801      0.22831887714173
  C   5.66789074329709     -5.63516255152527      0.28961703438284
  O   5.24978716270246     -6.92902350299936      0.31453833480467
  N   3.88016816394148     -6.90836972884304      0.26683660285299
  N   3.48128298221492     -5.72750408854241      0.21739646783656
  C   7.05003753240615     -5.38962888297343      0.32247356193862
  C   8.23530878249726     -5.19708648108018      0.35100909715926
  H   2.17141668452809     -3.13822950744996      0.07690209154182
  H   5.75384998182507      1.75975727673477      0.18141877775089
  H   3.29197242840476      2.02709825980413      0.05650166279303
  H   9.27833263432566     -4.99772744561285      0.37445537816754
