23
Coordinates from ORCA-job 6173optt
  Br  1.09703324992322      0.19362259299028      0.41710178983772
  C   2.96685835675803      0.00936234657896      0.18463508504737
  C   3.56007252913088     -1.25015366818534      0.03164611067763
  C   3.18101610816436     -2.58968795221352     -0.02187789701924
  C   4.36880146927627     -3.31664490575988     -0.23439257469061
  N   5.48164549645131     -2.48251530093414     -0.29726930297599
  C   4.99304986456121     -1.29538009311301     -0.14035116437282
  O   5.77450234537648     -0.17703271423135     -0.13644259438855
  C   5.14236914001266      1.01721909152294      0.02052204572977
  C   3.79649093905512      1.14372115092855      0.17524066914630
  C   4.45867934111383     -4.74380444695457     -0.29314289815277
  N   3.38813189545057     -5.43211797575596      0.04106774537439
  S   3.32363250430410     -7.06202500709663      0.21183505631150
  C   4.95721302576826     -7.57957787947781      0.19196385675840
  C   5.95445945688147     -6.76504671994155     -0.18140861357826
  C   5.71761361492956     -5.42619741509971     -0.73513207782274
  N   6.48789269711411     -4.88530676748766     -1.59761680576383
  H   2.18907798886332     -2.99872561156437      0.07352157241779
  H   5.82986514904629      1.84789458573762      0.00510167518743
  H   3.38459820981905      2.13619411794063      0.29235207978982
  H   5.13225858686145     -8.60055687423943      0.51286057351917
  H   6.97950762412454     -7.12076961350367     -0.17715917485270
  H   7.26923040701384     -5.51447094014035     -1.79505515617976
