26
Coordinates from ORCA-job 6174optt
  Br  4.02178077180462     -1.76875792486511      2.69808445146756
  C   4.27642089919406     -0.78283834264679      1.08596974610890
  C   3.76411808371856     -1.24161954527691     -0.14258988249803
  C   3.02246961369387     -2.32303034644882     -0.67979529931830
  C   2.90351653680948     -2.04021544542440     -2.03183063075528
  N   3.51443665214488     -0.85891701086611     -2.39323806926775
  C   4.01019926901171     -0.41628620432572     -1.26351077109304
  O   4.71521150150813      0.76367224049709     -1.16510196446095
  C   5.16166817696037      1.06976617734884      0.10068077048750
  C   5.82909322295593      2.40085594801018      0.15173084609551
  C   4.81192621107680      3.52699983116835     -0.00539965846656
  C   3.72894905202673      3.50813249951646      1.08367256824623
  N   3.40667468505869      4.92453297660132      1.19783924862986
  C   4.47013662965125      5.70285818035058      0.79477806607084
  O   4.58340028254649      6.90205646495891      0.94054850197563
  N   5.37845348870908      4.85720047279590      0.19707684480723
  N   4.95506649932115      0.35614143585134      1.16712193645010
  H   2.63715437442639     -3.17679946784343     -0.14489606783676
  H   2.40060243132357     -2.63301603748865     -2.78266676281279
  H   6.57734886232522      2.48320641922761     -0.64389788764941
  H   6.32653042512250      2.50267105308539      1.11576599166356
  H   4.33960241528946      3.44986945156402     -0.99024243371945
  H   4.14026694526390      3.09888327685269      2.01199144855315
  H   2.86896559668427      2.90995615324632      0.78988460100321
  H   2.84787253300183      5.28143858685356      1.95463911455037
  H   6.01213484037103      5.26623915725737     -0.46961470823134
