21
Coordinates from ORCA-job 6178optt
  Br  1.11744543309094      0.34226704786488     -0.01469638133441
  C   2.95784970541964     -0.08985303875091     -0.01340114552285
  C   3.41640649257920     -1.41051923027130     -0.03170267422982
  C   2.92208253454558     -2.71235161335639     -0.05208909495803
  C   4.06363724355068     -3.53038670615278     -0.05981468994962
  N   5.24596867148539     -2.80906067026539     -0.04514087938678
  C   4.84649671471467     -1.57269099879816     -0.02841847365202
  O   5.71027193373597     -0.53292726954710     -0.00800805740981
  N   5.22184406277220      0.76839139951584      0.01013204803713
  C   3.91632580326019      0.91980899420834      0.00637986317258
  C   4.00614920863806     -4.96234485899061     -0.07425477325270
  O   2.99830026753779     -5.63990379613324     -0.07686903139496
  O   5.27409965800407     -5.54609055508508     -0.09056776968715
  C   5.45200788084664     -6.87771231776233     -0.02503805376993
  N   4.63465019883410     -7.83147992013710      0.10378957852340
  C   6.90668829086745     -7.27832614853497     -0.12164853388431
  O   7.83053390505080     -6.53876337843221     -0.28285252516747
  H   1.89503535956023     -3.03755784758043     -0.05998153684050
  H   3.61771961784907      1.96123641701006      0.02075209054339
  H   3.67958105350249     -7.47870187525953      0.14302179583542
  H   7.02190596415480     -8.37303363354154     -0.02959175567155
