22
Coordinates from ORCA-job 6184optt
  Br  1.39057542621801     -0.08650293032719      1.05525613357450
  C   3.23211752803486     -0.15360534310392      0.49537671897665
  C   3.75241291758073     -1.41333756857626      0.15928780493866
  C   3.24263613855865     -2.73418415920045      0.10703162281742
  C   4.30173369106868     -3.51492073737737     -0.30821226264187
  N   5.45047670532564     -2.79162125869638     -0.52479844267667
  C   5.10962874091880     -1.54969635355790     -0.24386899428230
  S   6.20684908197382     -0.20847027292875     -0.35700517026298
  C   5.13956378466259      1.10835655048869      0.12779250627440
  N   3.85304656795120      0.97882591945289      0.47742013265621
  C   5.73018191381668      2.40560356340650      0.13654420029306
  C   5.22586947254976      3.69434739561716      0.41215636573347
  C   3.89409550868009      4.12900609944496      0.77873644893697
  O   3.60805952958116      5.29966720679485      0.96310398328699
  C   6.33868628743006      4.55237793105005      0.23755424223608
  N   7.42539049475347      3.90398381265276     -0.10631245516824
  N   7.04082324273706      2.60916416574506     -0.16501442679546
  H   2.23808265453934     -3.04435692695236      0.34480870604236
  H   4.30574106144832     -4.58359454413350     -0.46862411650992
  H   3.13685196623563      3.33966431934900      0.88727765880602
  H   6.34955716575618      5.62372277009087      0.35940648552722
  H   7.71862012017918      1.90757036076128     -0.40891714176255
