27
Coordinates from ORCA-job 6185optt
  Br  1.12039022745459     -0.57334643549515     -0.67994473190965
  C   2.93730292087068     -0.15776294389312     -0.19480898066839
  C   3.80470513222469     -1.23280875855193      0.08486988688244
  C   3.68905578971758     -2.64354326907327      0.09021642265917
  C   4.94101482728930     -3.11157531263621      0.45065950526677
  N   5.84225981943137     -2.10406927920570      0.67585022110736
  C   5.15466897135178     -0.99426073535955      0.45363509738756
  S   5.84914248804342      0.60021453050451      0.62075331078656
  C   4.44384499855546      1.56087927797358      0.16381381219386
  N   3.24911434252700      1.10728291845180     -0.16549376479653
  C   4.70084707561991      3.03148415988065     -0.01140495075815
  C   5.34468805791941      3.34491202861952     -1.36358932944755
  N   5.75396991235267      4.74125523106933     -1.48371581828414
  C   6.73776468382330      5.05867426688755     -0.46143015351079
  C   6.38042293274166      4.63210265257528      0.95431454667918
  N   6.85938004135508      5.17973323311477      2.00790880316760
  N   5.55421960350633      3.55780450094715      1.05075304990591
  H   2.80504723548248     -3.21619429323380     -0.14167449627022
  H   5.24780995760251     -4.14234437295555      0.56264214563806
  H   3.71605400594982      3.51509652720036      0.01391525818368
  H   4.63447495659683      3.09513557810749     -2.15100178871538
  H   6.23056023880277      2.71670493915087     -1.49098854848654
  H   4.94043506924142      5.33678346162747     -1.36597187474239
  H   6.93857965979563      6.13023949007757     -0.46000466695616
  H   7.67097851524715      4.54888016781161     -0.72168097860853
  H   7.49028318581355      5.93402483610557      1.75195442360571
  H   5.32698535068350      3.27969760029917      1.99542359969053
