23
Coordinates from ORCA-job 6186optt
  Br  1.27192796134717      0.19217225960309     -0.78502231941954
  C   3.09323142105877      0.05372561453258     -0.24398179966862
  C   3.66660305529297     -1.22715460478741     -0.10847553372938
  C   3.22039686856140     -2.54592826160176     -0.27028728663191
  C   4.31908832302839     -3.36110068898001      0.02804662405246
  N   5.42739285299836     -2.62253810336894      0.36867242349992
  C   5.03498646215528     -1.36391298111891      0.28513572446635
  S   6.03615165069366      0.01557598776137      0.60742425538941
  N   5.06786562963098      1.33812196117772      0.36030959209575
  C   3.80174731045110      1.22190424075904     -0.00847925713068
  C   4.38236930990141     -4.81593118545788      0.00710366505526
  C   3.27102643095084     -5.59904152766239     -0.33683565156514
  C   3.34619969789175     -6.98201086206434     -0.35874437685576
  C   4.53424852368660     -7.63008905276903     -0.03720798735665
  C   5.64428933197524     -6.86593242098017      0.30857294685776
  C   5.57218840345214     -5.48290751375000      0.33162359536582
  H   2.22813244704951     -2.84713210076283     -0.56583374165061
  H   3.28250238175851      2.16845211763024     -0.13464215883139
  H   2.33867971640322     -5.11026191329902     -0.59019997052935
  H   2.47084776210475     -7.56066727516957     -0.63045787916798
  H   4.59320790848322     -8.71124448857630     -0.05599041906560
  H   6.57694589985332     -7.35625670674496      0.56290575343147
  H   6.43097065127137     -4.88184249437049      0.59936380138842
