21
Coordinates from ORCA-job 6189optt
  Br  0.74074663154445     -0.12668899114567     -0.50353366381351
  C   2.60421047472817     -0.00756928323157     -0.22938491814749
  C   3.43022726608572     -1.09852473970958     -0.12478908038499
  C   2.97745374248490     -2.43071532726307     -0.28720574806712
  C   3.88712136119694     -3.45527017139728     -0.23432440300680
  N   5.18403785338695     -3.27635817481976      0.00810238624848
  C   5.63769367851602     -2.03209899936734      0.22047254856854
  C   4.84140371317820     -0.85463325838922      0.13582350438570
  C   5.28361967801755      0.49589277541769      0.16819983532505
  C   6.64459707254925      0.96613740421648      0.27954333071970
  C   7.66259543174506      0.44347202446547      0.97472514840482
  S   7.50375622996404     -0.94484511552533      2.03984767767588
  C   7.06388309820077     -2.08153065355036      0.65041788168414
  O   7.87849882583275     -2.84623061532243      0.22821274740054
  C   4.36956194047943      1.57891263946804     -0.07258159804653
  O   4.62372427309129      2.75590807511020     -0.17217629338659
  O   3.00777507197402      1.26392242905775     -0.18375866796501
  H   1.93238807746161     -2.62722679086207     -0.47683954170965
  H   3.56585819387948     -4.48137586405637     -0.38234497026595
  H   6.84429712731285      1.88658985155764     -0.26083773630015
  H   8.65255025837048      0.87523278534678      0.90043156068094
