23
Coordinates from ORCA-job 6193optt
  Br  1.32253362049257      0.38653170702664      1.16154765057369
  C   2.86033479428583      0.05571018040805     -0.12393460627134
  C   3.53735218977820     -1.18011390063487     -0.04788881046451
  C   4.93146185199932     -1.12401690028349     -0.10083480341537
  C   5.69477386574004     -2.42195432493823     -0.23326832008966
  N   5.00630445230035     -3.49589397855683      0.46505869774742
  C   3.63896987950258     -3.61246920772652      0.16027020112752
  C   2.90666010539626     -2.47476143672461     -0.05997423133270
  N   1.56396087808439     -2.61973576819075     -0.29319917197656
  C   0.90159118365772     -3.83120493873024     -0.28976282028041
  N   -0.36085707675168     -4.00862374174828     -0.48864617924814
  C   1.79322702826685     -4.94965975334796     -0.03622001934684
  N   3.06984799000214     -4.83760302076167      0.16960521907565
  N   5.65241166575123     -0.01599528277817     -0.12626926962116
  C   5.01074323519924      1.17620469403485     -0.16144282468680
  O   5.51273643165636      2.26654982287584     -0.16050027978910
  O   3.59365396274915      1.16974397184702     -0.25302368479666
  H   6.68563816383655     -2.27891730636553      0.19272826290492
  H   5.81216104931401     -2.62315685029619     -1.31249921594496
  H   5.46162867033110     -4.39347572779669      0.37961117926436
  H   1.02278802502562     -1.77440241571391     -0.42134566849029
  H   -0.83909532722038     -3.12364256965644     -0.64385346936942
  H   1.34117336060250     -5.93411325194199     -0.02115783556964
