25
Coordinates from ORCA-job 6194optt
  Br  1.06487080624742      0.32143968570418      0.42440255494267
  C   2.93104244341558      0.11943316842419      0.18846776490956
  C   3.54816323795344     -1.06898959006815      0.20061305183108
  C   2.95630016382288     -2.38859560561905      0.31945175043477
  C   3.70298777649049     -3.48221332992863      0.09850946781048
  N   5.02995120743717     -3.40747772356999     -0.26695365025873
  C   5.67832021873754     -2.17435740836447     -0.22838687622376
  C   4.99061287582373     -1.05079572846499      0.04645723431870
  N   5.67567757602240      0.18340874830924      0.10006639910731
  C   5.00502704083360      1.34609443749002     -0.21990995402601
  N   5.48840332903019      2.43655207851335     -0.67548992941431
  N   3.62397583789561      1.32758588615603      0.05350698367787
  C   7.11235015462542      0.16006585507077      0.30251170248451
  N   7.77333443993228      1.17912459450190      0.82334983525776
  C   7.79571040729315     -1.04184924532783     -0.04318954496692
  N   9.06666880058595     -1.29122966449747      0.09043541255423
  N   7.01961006797556     -2.14470783227055     -0.53495156791000
  H   1.90877620869032     -2.49243219315300      0.56131587678893
  H   3.29791355916675     -4.48162608527649      0.17322712377761
  H   5.60213277708343     -4.22850811594940     -0.16227649861376
  H   6.49060100295337      2.34173404638937     -0.81505385604393
  H   3.14878076166082      2.07196069030461     -0.43482911830077
  H   7.13113127777867      1.90967737000786      1.11262059328485
  H   9.49924242239888     -0.44377691302377      0.45216356380901
  H   7.54341560614522     -3.00151712535771     -0.41005831923112
