26
Coordinates from ORCA-job 6197optt
  Br  4.65844957434083      5.20410565895093      4.83772988456081
  C   5.07494897994884      5.41354153250348      2.33121902463933
  C   4.82488982687768      4.31310835486739      1.62861629589278
  C   3.86529119817131      3.24632725275897      2.13167663913425
  C   2.59899294305170      3.28745007396533      1.38204025737858
  N   1.61050798702198      3.27986922021570      0.79994420725042
  C   4.48256908520984      1.86488668537030      1.99369004353145
  C   5.19378656534071      1.30771485908912      3.19750762712497
  C   3.87654778720017      0.73519941783881      2.76687881205046
  C   5.02273932075340      1.64846096161389      0.63483298840708
  C   5.39422222296963      2.69222195634756     -0.10513483960065
  N   5.36345658374594      4.01271533512090      0.35280970121345
  C   6.03109647639475      4.98086751739391     -0.35885777983428
  C   6.36778340206649      6.18612717383204      0.10709790952826
  S   6.14163227192743      6.64097441678009      1.78339846643332
  O   5.50613452160279      7.93535106186945      1.80143523532228
  O   7.41913185923141      6.53369413163054      2.44453437955560
  H   3.65080456979337      3.48257272462039      3.17554999415559
  H   5.22010886669244      1.93927166133583      4.07678237341721
  H   6.08621757915454      0.72652672039644      3.01268044238462
  H   3.00306703110560      0.95783302108191      3.36510853215959
  H   3.87034842042746     -0.23770720322052      2.29325438346031
  H   5.08859861377150      0.65030589450872      0.22311072737375
  H   5.77366493830051      2.58024632209371     -1.11212955731766
  H   6.27455550516447      4.69490916527460     -1.37561911367344
  H   6.84745386973499      6.92242608376033     -0.52215663454815
