29
Coordinates from ORCA-job 6207optt
  Br  1.03626309511387     -0.13636764747429      0.56804883789786
  C   2.87312327612003     -0.05554747849888      0.01997438093588
  C   3.63198935018217     -1.20068247308154     -0.13479447997445
  C   3.09113383504730     -2.60857045613923     -0.05168151209352
  C   4.16065947516517     -3.52802184543494      0.54394015355561
  N   5.40163649500880     -3.56827242306874     -0.22632460874592
  C   5.92526719832824     -2.24182593708751     -0.57855047228028
  C   7.21334978823348     -1.82412093571555      0.14970611132014
  C   7.25495287336492     -0.29110816859240      0.00482639332549
  N   7.95147061428251      0.12733668397499     -1.22642543555623
  C   9.29243191417727     -0.01742228509471     -1.37866143576798
  N   10.07524591092109      0.51125290171324     -2.23890543834271
  C   5.79378946928797      0.07186636278511     -0.06858884576621
  C   5.00995105035043     -1.08270334629034     -0.27601630085251
  C   5.33539693509351      1.37716636418909      0.06829725967893
  O   5.96838273802582      2.41797177946111      0.22693256249611
  S   3.49435520159110      1.57566642728388     -0.05128284649096
  H   2.80334787534528     -2.98127607591622     -1.04264681275063
  H   2.19277754863331     -2.63238833376238      0.56681152724049
  H   3.78787908929829     -4.55169040549822      0.62501112317067
  H   4.39100741371383     -3.18505078712486      1.55609199858855
  H   5.23280271819691     -4.09083207606626     -1.07533011824679
  H   6.14515824419923     -2.24835888787036     -1.65434679323087
  H   8.10286888992345     -2.32087000362834     -0.24121672936432
  H   7.10730942950250     -2.08289064086750      1.20604446490192
  H   7.73886922980006      0.18921488127962      0.86062917481281
  H   7.51518105428258      0.90797989634742     -1.69804939392606
  H   9.72576416141906     -0.71802773810902     -0.66234851373995
  H   9.55863512539171      1.14957264828685     -2.84614425079508
