27
Coordinates from ORCA-job 6213optt
  Br  1.30138342891376      0.08738067586529      0.62155105091042
  C   3.25031794454247     -0.05856520366488      0.45692016145103
  C   3.75641266513988     -1.33364784736145      0.22011300509978
  C   3.04317915378152     -2.56246379017475     -0.27150532566842
  C   3.99052949694822     -3.77551810891199     -0.37601906203469
  N   5.31586799173710     -3.51870123498909     -0.97438719469453
  C   6.02844442792792     -2.49496263598060     -0.18775244028962
  C   7.21828907119681     -1.80437535659293     -0.87751131915187
  N   7.21841563246121     -0.45612542254728     -0.27361466212870
  C   5.89730199113629     -0.16115153035895      0.06648891044524
  C   5.16431357631006     -1.32765809406724      0.12563856171645
  C   5.26232038900060      1.06108096425698      0.27799315276425
  N   3.89206578842282      1.06461320666985      0.55294001189010
  C   5.97401726780795      2.27483023888155      0.18715394689277
  C   6.63809224957635      3.28359152812310      0.09875980814947
  C   6.48585834076604     -3.06828837200730      1.15031943684919
  O   7.64296023847263     -3.26530649446177      1.45512726277480
  H   2.62713057190470     -2.36569351119450     -1.27070191752809
  H   2.19240617922718     -2.82541380429587      0.36223958999124
  H   3.50853837561885     -4.56031855882446     -0.96154533608104
  H   4.16144863154820     -4.19156972401190      0.61891638452163
  H   5.16444052166133     -3.12456003083145     -1.90213006090205
  H   7.02733506368359     -1.75842100660778     -1.95805598003921
  H   8.15510412047505     -2.32247948611039     -0.68333839213844
  H   7.71401905364030      0.27149537674944     -0.76727854037442
  H   7.21158036669629      4.17601414678684      0.05204777045828
  H   5.68122746140272     -3.20678592433845      1.89463117711645
