29
Coordinates from ORCA-job 6215optt
  Br  2.86839726839761     -0.32136608258133      2.63731181155428
  C   3.10147064099638     -0.13457117881113      0.76637770754402
  C   2.82270247277088      1.07832482523774      0.11613353974279
  C   2.48469030665000      2.33109039005837      0.88629036378550
  C   1.04974479455995      2.47680016643871      1.49228477152265
  N   0.16132234830325      3.45733899966382      0.86139243801239
  C   -0.54090522619309      3.10260810029902     -0.38080904834234
  C   -0.34512272605034      4.21914566522654     -1.42308405451795
  N   0.98426835568027      3.97378582559463     -1.99663106154301
  C   1.25265260130769      2.73765551856220     -1.78103006529500
  C   0.12164502862974      1.96111267588499     -1.14130525962768
  N   2.42526101198322      2.12410334289883     -2.07421822308987
  C   2.88221681454617      1.02707073617154     -1.28611954795599
  N   3.27720524378533      0.00525871262942     -2.01991483295696
  O   3.86043887568181     -1.05004536062778     -1.28676758551653
  C   3.59321796817146     -1.26280540509155      0.05687723941652
  N   3.86948104613835     -2.41502342427749      0.54767954401875
  H   2.67608592472236      3.20615840711463      0.26163680063929
  H   3.18734437418140      2.38797640616262      1.72102319982825
  H   1.16051594387735      2.78319805644993      2.53458968329789
  H   0.54950136015288      1.50820337032295      1.52305232630914
  H   0.68561654004468      4.30970869794442      0.70856953128096
  H   -1.59485823092917      2.90290308835999     -0.16923832212839
  H   -0.38993121512343      5.21642434158708     -0.97783830534163
  H   -1.12701558393689      4.16622511650745     -2.19141654079445
  H   0.42123380491248      1.10101337831784     -0.55281763975330
  H   -0.53640261439673      1.61222682159462     -1.94454395902220
  H   3.11451651547061      2.67768873122567     -2.56075918234775
  H   4.21670635566574     -3.00720992286375     -0.20372532871939
