25
Coordinates from ORCA-job 6216optt
  Br  0.82720626848060     -0.64999370463662      1.06387561946158
  C   2.64264814636350     -0.38439768493255      0.53437965753665
  C   3.40049525913151     -1.47344173252144      0.13978725433388
  C   3.18037199034654     -2.74017122530023     -0.38834540824167
  C   4.43460885465020     -3.30978876404747     -0.69777639423074
  N   4.69394816326308     -4.59796400529604     -1.22870387100007
  C   4.15282420890526     -5.71006735770750     -0.61130642152633
  C   3.96955005215017     -7.01522317144306     -1.00400920597542
  N   3.42148625434622     -7.74544804381097      0.02935507806240
  C   3.27419109128545     -6.90894021047893      1.01540826821311
  N   3.70623634151219     -5.65584660462700      0.67653772743766
  C   5.48223697677934     -2.38891451065963     -0.37308641161883
  N   6.77549649331532     -2.39860738284964     -0.48662269352395
  N   4.80209648724733     -1.28785007787467      0.16916407331358
  C   5.31952844962004     -0.05108322000736      0.46256050023942
  N   4.64341314840402      0.90876265950803      0.95941153525268
  N   3.30628246985579      0.64078226521396      1.28271608525117
  H   2.20979008427291     -3.19033027024890     -0.53116705414224
  H   4.71895975069152     -4.67776707280207     -2.23534640486106
  H   4.20728362401372     -7.45910440335344     -1.95602211083184
  H   2.86376670063331     -7.12981208012589      1.98699191002654
  H   3.66003654169561     -4.80308162147961      1.21342101157842
  H   7.04970591733721     -3.29463707330030     -0.88109925570105
  H   6.37208475357998      0.08355256409281      0.25288784230599
  H   2.80275197211904      1.51637272868861      1.23998866864013
