24
Coordinates from ORCA-job 6221optt
  Br  1.09761879936451      0.00338510238756      0.32963196897602
  C   2.92358848189675     -0.14047997917971     -0.12930834880113
  C   3.62891240990806     -1.29830556935194      0.22509761637580
  C   3.32256598142153     -2.48947261289169      0.92764767294702
  C   4.45631900237151     -3.25964096152247      1.00705688562728
  N   5.49655832479837     -2.58648075414185      0.34536986560067
  C   6.77665932349695     -3.05201086366691      0.22323506810638
  C   7.49985446838862     -3.89226437933856      0.99291902303660
  N   8.71568972236975     -4.09695857490170      0.31835943574837
  C   8.77269460760503     -3.37059926057675     -0.84299608349115
  O   9.68192605179796     -3.30875840089877     -1.65373624996063
  N   7.55544654990409     -2.72359550304133     -0.88108767144059
  C   5.01150888595914     -1.36228257534171     -0.12532047913938
  C   5.62998354304174     -0.32905757167968     -0.75776766636437
  O   4.90222322041882      0.79410544544246     -1.09183697785880
  C   3.54157619619720      0.94194828521065     -0.80453374257036
  N   2.98070042830152      2.03930159550947     -1.17154305951411
  H   2.35468411643487     -2.75351051564987      1.32155729554080
  H   4.62242107849246     -4.25241458566478      1.38757709074723
  H   7.25781286011642     -4.35649824058335      1.92953302601848
  H   9.49443630135281     -4.64148374878716      0.63751321239462
  H   7.23647414016518     -2.17034839844563     -1.66056192027888
  H   6.68288223731911     -0.20711050914835     -0.95201015231202
  H   3.67746326887755      2.62353257626208     -1.62579580938785
