22
Coordinates from ORCA-job 6226optt
  Br  2.49452650493379     -2.83886041677911      2.46809917745480
  C   3.63778003019740     -2.28976355100120      1.05274657708321
  C   4.39786652921129     -3.14880467299993      0.35391263256848
  C   4.92813927267850     -4.55166603352309      0.62777356592398
  C   4.19029080418476     -5.60058307908211     -0.08546628596755
  N   3.62677439121450     -6.44526566265358     -0.62012677046827
  C   6.41840977411330     -4.47095294060845      0.11008124758504
  C   7.41434524479535     -3.84672381524710      1.12372269268493
  O   8.24481155510354     -2.92859828745038      0.38612309649094
  C   7.53212609645013     -2.48265886848832     -0.74136048614511
  C   6.38754256871705     -3.35468865389246     -0.90774414091137
  C   5.33254068682426     -2.53270835704591     -0.53148201203359
  C   5.70263401976619     -1.20410317856293     -0.44520209483969
  O   7.07677306825526     -1.13704085436404     -0.70223059059913
  C   4.91833644531752     -0.28752418300854      0.28493874270008
  O   5.06319868847987      0.90145158897911      0.54161611768158
  N   3.74187773621445     -0.94564946267945      0.83593647886566
  H   4.87419982008887     -4.79951822974109      1.69154253677756
  H   6.75396172401819     -5.45139081032984     -0.23184457902418
  H   8.07032667982616     -4.57548338705230      1.59973918950178
  H   6.86955671909436     -3.29297519276903      1.89876999179979
  H   3.15498164051509     -0.31549195170014      1.36045491287106
