27
Coordinates from ORCA-job 6227optt
  Br  1.20068641097601      0.09227260373385      0.89133129723477
  C   3.10935824567817     -0.03769589353834      0.59001041426251
  C   3.63358904296622     -1.30337746387786      0.28042842212162
  C   2.91418659691107     -2.46580969375930     -0.34574240790686
  C   3.83921442361651     -3.67782109240388     -0.48229953809713
  N   5.11836878591785     -3.33465041198882     -1.13628170761892
  C   5.89058418461680     -2.43129837743299     -0.27635319204287
  C   7.04773589305812     -1.67150367211639     -0.96426235081154
  O   7.08016675064231     -0.36977757563787     -0.36763323352375
  C   5.78604219176222     -0.12123127500226      0.03602574386883
  C   5.03390051432022     -1.25221962070023      0.07030434608229
  C   5.25833328435714      1.14483324936824      0.36392472602670
  C   3.84410935171253      1.11564391132696      0.69010718300246
  C   5.99762162497250      2.33294240259348      0.33205203087069
  C   6.61765146940577      3.37739843410713      0.32428868622525
  C   6.38809316450385     -3.13308919933924      0.93183781427204
  C   6.82619599317243     -3.70283150705034      1.89463224921215
  H   2.55737853984723     -2.19366926470633     -1.35171420963777
  H   2.03472607970064     -2.75989562511982      0.23255184707899
  H   3.35586584016116     -4.44283028252576     -1.09233419527879
  H   4.01525183607963     -4.10232107828386      0.51687364246179
  H   5.64403272901616     -4.19116756056966     -1.27906921708259
  H   6.80032122861742     -1.57818704496153     -2.02595409156169
  H   8.02545458084915     -2.13145202953005     -0.82830640197713
  H   3.36838775304497      2.03583752718373      0.99857063921648
  H   7.17298708821912      4.28196529113000      0.32459544023532
  H   7.19875639587469     -4.18306475089882      2.76641606336713
