24
Coordinates from ORCA-job 6232optt
  Br  1.19089335073927     -0.03536576947994     -0.15392693124214
  C   3.07072896977213     -0.21414368854078     -0.64964221386886
  C   3.73369034467276     -1.35949496192705     -0.22361583241230
  C   3.40514144731197     -2.70903042246790     -0.11412319126771
  C   4.55593150130386     -3.41005775719474      0.24781274191407
  N   4.62182100272730     -4.78827109309251      0.42993700913250
  C   5.60775142642394     -5.42947258830302     -0.00837215285602
  C   6.76878101173377     -5.02924108867220     -0.88771971537746
  O   7.20738756894544     -6.27552631729615     -1.42153679585938
  C   6.90415770911844     -7.20623598895221     -0.42570214152493
  O   5.69470880703918     -6.79203073728674      0.16792927273201
  C   5.63075883401662     -2.46936470764948      0.50051475888383
  N   6.80458408042004     -2.58301948020255      1.03842754731857
  N   5.09907117249857     -1.23558178673924      0.10338378225623
  N   5.57797363446075     -0.04602921349893      0.58842744504520
  C   4.87979732959754      0.96548513743734      0.29321305876289
  O   3.76311448100370      0.99572521835794     -0.47774425277375
  H   2.44164177566689     -3.13546953598149     -0.34179600340017
  H   7.56784667632095     -4.52559407211570     -0.33468993857400
  H   6.43927623619827     -4.36993271332948     -1.68997438252285
  H   7.69318815580080     -7.22872766068921      0.33996717838356
  H   6.76982354116443     -8.18896721539208     -0.87430492702321
  H   6.91516818525423     -3.54071883130931      1.35975355255655
  H   5.18776275780898      1.94606527432554      0.62978213171736
