24
Coordinates from ORCA-job 6237optt
  Br  0.81270265153208      0.03092955951815      0.64593180200468
  C   2.70098520769541     -0.05214143002534      0.35994689753984
  C   3.22692794675396     -1.28554993042894     -0.02206494881498
  C   2.93718234319921     -2.68088162377762      0.57118328446341
  C   3.29556600330748     -2.83597132997874      1.99315292621563
  N   3.65666389981903     -2.91649780753262      3.08212882438820
  C   3.92351861373619     -3.45940159150673     -0.30879780578015
  C   4.70615495164962     -4.77583564001508     -0.22514645208223
  S   6.03065016720462     -3.87540666282654     -1.14339726819697
  O   7.36955147529173     -4.10808123665941     -0.67516097530526
  O   5.75896130887253     -3.92020964920435     -2.55587468116871
  C   5.14087004825970     -2.55104421792415     -0.23060397838581
  N   4.62657812854957     -1.24919858469241     -0.44397064669581
  C   5.35019571420811     -0.11235472325834     -0.17506009062521
  N   4.86836551676730      1.01582825651698      0.15087209423980
  C   3.43809983709446      1.15979505801107      0.28836809289465
  N   2.93343242447422      2.34652332328347      0.35817539861249
  H   1.89171999080378     -2.95284010353413      0.43640867353106
  H   3.53361619223978     -3.37034862571557     -1.32386672368875
  H   4.31534385387439     -5.63477668834564     -0.76058785865038
  H   5.06590206835791     -5.02775009350540      0.77094455518044
  H   5.62745273173390     -2.65984236388961      0.75067960410104
  H   6.42734195921883     -0.22746263227924     -0.29709222448713
  H   3.70621696535606      3.00751873777025      0.32383150071013
