27
Coordinates from ORCA-job 6244optt
  Br  7.05454897886075      1.10434154481795      0.01485077333482
  C   5.29534646269860      0.39384169152310      0.01549553622940
  C   5.05283843890124     -0.98641840599684      0.05817039599217
  C   5.76903936058441     -2.20487896460117      0.10781128199510
  C   4.77269821339147     -3.17149658962244      0.13163966783555
  N   4.85962147541890     -4.56543045977125      0.18323089926171
  C   5.95673125858659     -5.36331724567857      0.18803663159961
  N   7.14636094960270     -4.89422636698513      0.21218876632157
  C   8.26476659299174     -5.81552668856511      0.18260783850051
  C   7.91572416872839     -7.22974474869435     -0.25640948162527
  N   6.72876662634924     -7.72488902641263      0.44010616652231
  C   5.60716976515277     -6.84679394030521      0.14414289538620
  N   3.49792002842913     -2.67064248221573      0.10057732681336
  C   3.68570144104193     -1.36430959869707      0.05581732248391
  O   2.65432734957043     -0.49363201260755      0.01241831660235
  N   2.92384970544653      0.88776422200804     -0.03204053773457
  C   4.19577927569226      1.23744951290723     -0.02714893042334
  H   6.83126321434584     -2.35972634188089      0.13171549130340
  H   3.95309183322305     -5.00591131138150      0.18406724576139
  H   8.71744530223800     -5.85334470230772      1.18346641977347
  H   9.03200891847749     -5.39921974657251     -0.47780922754382
  H   8.74997515648976     -7.91289376815793     -0.08182855351256
  H   7.69209886306530     -7.24550137282414     -1.32768327863571
  H   6.90974659793550     -7.69168149310413      1.43889976581215
  H   4.79630234011494     -7.04886422801799      0.84698398725476
  H   5.23099150348283     -7.08591251393746     -0.85642293771444
  H   4.32688617918014      2.31296503708103     -0.06188378159403
