24
Coordinates from ORCA-job 6247optt
  Br  2.72896116210888      1.21311925772887      3.75761605063787
  C   3.65321693908169      0.81081669786303      2.01352359964817
  C   3.58312466026961      1.74174155872489      1.02307549240581
  C   3.18887601934490      3.19247335332014      1.23246568890420
  C   1.66484949657863      3.48753282465675      1.32709539590244
  N   1.00038976015933      3.93481168714421      0.08203841158784
  C   1.03569007943780      3.05823891324238     -0.95511245175011
  N   1.27718015211766      1.80617311286675     -0.75830545372869
  C   1.60935095054921      1.21498394347638     -1.93770869105530
  N   2.37070042259150      0.02978968807992     -1.83351066590620
  C   3.12805965053506      0.01140131161432     -0.62310861285738
  N   3.03420311546493     -1.01942009380293      0.14042770448092
  S   3.90631173534814     -0.85108279495076      1.61047678464418
  C   3.82127853789713      1.28860358909847     -0.33496603228370
  N   4.28524815747725      2.10372848028948     -1.25501948954841
  N   1.42081155426028      1.85382258372590     -3.05852190171059
  S   0.91115447847886      3.39091067000173     -2.66446510034614
  H   3.61787555132292      3.76869702727907      0.40970150485558
  H   3.63979649231725      3.54539032471988      2.16140795356440
  H   1.13560012504632      2.60558587434532      1.68010169717341
  H   1.49502721222616      4.28432763494041      2.05117716396071
  H   1.14876092179001      4.89879821321238     -0.16920273315413
  H   1.87475714538566     -0.83709523952271     -1.99044228345814
  H   4.25977568021075      1.64665138194609     -2.16474403196674
