27
Coordinates from ORCA-job 6248optt
  Br  4.02775520992811      0.13203061814393     -3.04987270349413
  C   3.82459073734014      0.23822745116038     -1.13479358491158
  C   3.58739129641293      1.46774657366005     -0.57669405389551
  C   3.07588101464268      2.71499590523552     -1.23403557522707
  C   1.58097202706454      2.78200898469123     -1.69933856029431
  N   0.65576568954472      3.54977956797555     -0.82611679018653
  C   0.72952868819954      3.11959678182008      0.48815724097290
  N   1.05915997594270      1.90027685931653      0.77562621133821
  C   1.40620362044530      1.89530890894225      2.09648212835457
  N   2.16587899839586      0.78554321277874      2.50902104615141
  C   3.05200310354070      0.41852753371682      1.43534955431230
  O   3.67652040184958      1.50097242923354      0.83173460320621
  C   3.17761025417116     -0.79498538206479      0.89620921948059
  C   3.87471965255989     -0.97270462763649     -0.38552100411489
  N   4.35618543766458     -2.12475343077619     -0.84028345849702
  C   1.12988577006750      3.10297327751643      2.66742687478196
  N   0.66511003463971      3.89715489790680      1.60088205327993
  H   3.68042033719136      2.89194048971246     -2.12764655821733
  H   3.26153017475296      3.55391731732629     -0.55233156741487
  H   1.19131574524515      1.77034572733358     -1.78901882343282
  H   1.51942033278664      3.25442724222515     -2.68113920322547
  H   0.80216687082908      4.54626253948653     -0.90671875582056
  H   2.66187123110654      0.98160000697606      3.36939298458646
  H   2.66639710313161     -1.63512579884975      1.35035804556984
  H   4.21461480468915     -2.83336077793870     -0.12269683281411
  H   1.27455466370700      3.50316603084597      3.65418121197584
  H   0.50354682415080      4.88712766126196      1.63338629753595
