25
Coordinates from ORCA-job 6254optt
  Br  1.39754955244746      0.45637384752707      0.20704339577662
  C   3.21879232660755      0.12413888031986     -0.21163252216897
  C   3.73767911342326     -1.10424121662445     -0.23827292430199
  C   3.09885126989815     -2.44356567798514     -0.02307553093573
  C   4.11127272846879     -3.44546158889222      0.54095640008876
  N   5.31261624794198     -3.47469838141028     -0.30628211398930
  C   5.91570995014941     -2.21296710121476     -0.34548802657899
  N   7.14620580591682     -1.85926858073013     -0.20374630887594
  N   7.20679663332441     -0.46374926156448     -0.23158827422961
  C   5.94298616471232     -0.02132680107501     -0.34598866126064
  N   5.09504398027020     -1.13195051111951     -0.51420717739743
  C   5.34307883241341      1.24279363862193     -0.22774274008294
  O   3.91243109178345      1.22980896376854     -0.54266110173854
  N   5.89032399626595      2.39307361433772      0.02876065997207
  C   5.00936611782870      3.52979743699151      0.03328287989044
  C   5.72534195327909      4.76554215873199      0.37777738655532
  C   6.27615035012863      5.79425914910400      0.65552241028425
  H   2.72826463790039     -2.82298873283967     -0.98000949274044
  H   2.24730196554392     -2.34684493047268      0.65000912822583
  H   3.67148889910871     -4.44262773039051      0.55040939793371
  H   4.35775592364096     -3.16452524331148      1.57380207964743
  H   5.99103847564153     -4.15762922165367      0.00373214063194
  H   4.18103546166815      3.41814023882668      0.75070062839267
  H   4.52266635263116      3.69387670966081     -0.94027528939412
  H   6.78625216900547      6.69304034139393      0.90097365629558
