24
Coordinates from ORCA-job 6257optt
  Br  1.06249970174675     -0.04023943321402      0.13668444384092
  C   2.95266185780167      0.04236965992570     -0.00082809244029
  C   3.59029811423908      1.29448645337021      0.03083622185702
  C   3.02688755728998      2.66612003578789     -0.17908221021327
  C   4.22641348087439      3.57747056978580      0.11519151404605
  N   5.39556809958876      2.70139607798925     -0.08463940618490
  C   6.63645612551636      3.15380060897670     -0.06392487764677
  N   7.76131265499506      2.49852631756252     -0.06321068909762
  O   8.74104097324352      3.54168170602778     -0.07156412463191
  C   8.14408594880418      4.72703231185577     -0.05573025969015
  O   8.65706785452638      5.79988681279050     -0.04806071729267
  O   6.79705051756165      4.51066847205623     -0.04945126458122
  C   4.98745607779200      1.34026969656642     -0.00779636419763
  C   5.76494232914771      0.22025919451980     -0.02881941215694
  N   5.08845795922958     -1.01212323688843      0.07768707192126
  C   3.68342959268890     -1.17748752717961      0.02449824677266
  N   3.14523990389166     -2.36060683495904      0.01586745555250
  H   2.18481470736908      2.89787495097701      0.47513743644419
  H   2.67610835690302      2.80694346556525     -1.21233785290807
  H   4.21210134331830      3.92306205650078      1.15214223827432
  H   4.29241264464477      4.44315549813826     -0.54143618068584
  H   6.84077544561124      0.20603685202212     -0.00349623430964
  H   5.59892802854143     -1.82693389644991     -0.21976166030817
  H   3.86999072467442     -3.07264981172700      0.07009471763615
