22
Coordinates from ORCA-job 6262optt
  Br  4.95326667961461      0.32871045524388      2.93851455204391
  C   3.93104038892770      0.29363260695371      1.35372840045753
  C   2.88230797568633      1.08961327856430      1.15383010858982
  C   2.30630548010244      2.19219241978676      1.94238727650208
  C   1.00252163832110      2.01896614651997      2.19404894936011
  N   0.04645399389184      2.87922354305682      1.63408666850814
  C   0.20938474536005      2.73258187537879      0.36088799932524
  O   -0.62580256211718      3.34997031644544     -0.49856559003599
  C   -0.33855543711700      2.87056936588562     -1.79275855205522
  N   -0.99389407334391      3.28851235811705     -2.80257195355907
  N   0.67281833630916      1.97524221717737     -1.75736801929410
  C   1.08714065577326      1.87030109470646     -0.48550046456732
  C   2.19168528677438      0.99208215698071     -0.14772579948728
  C   2.68436993508906      0.09206179431019     -1.05938908616842
  C   3.79725893340753     -0.76477117214707     -0.76676790092913
  N   4.34355679970900     -1.66637667555330     -1.48161112904646
  O   4.38965006708869     -0.61949183624660      0.48956501342546
  H   2.59762038586205      3.18411973247232      1.60302450141987
  H   0.62484453903252      1.05116542136614      2.52440456108023
  H   -1.68288562090952      3.96775682787017     -2.49062365302290
  H   2.22475732589764      0.00075088779009     -2.03301410860917
  H   3.85815452664023     -1.71281281467885     -2.37258177393733
