24
Coordinates from ORCA-job 6263optt
  Br  1.32715435058371     -0.17263299031057      0.05386202810369
  C   3.26135335107460      0.06015339684993     -0.03724077026146
  C   3.75186837665690      1.35178069407885      0.03797952780609
  C   3.00384535505020      2.62950480164179      0.24462948469558
  C   3.75512356291859      3.78047749371325     -0.42475997030242
  N   5.17405446443963      3.85250751966809     -0.10186917767166
  C   5.77400287035516      2.75388027671626      0.06472406940874
  O   7.13128448749561      2.86164875476616      0.31707984910177
  C   7.97448761343630      1.80208120027093      0.31338614417704
  O   9.12604250496691      2.00196097055806      0.57519420271182
  C   7.44818662382283      0.43528734211361     -0.04306151529412
  C   5.95860113545252      0.29906732858513     -0.06863086167400
  C   5.31724794581808     -0.96036941772921     -0.18030855201434
  C   6.01900817589477     -2.19755148613254     -0.33091886108346
  O   7.24416197019355     -2.35392456530962     -0.41431634856982
  N   3.93401655195984     -1.04090303672282     -0.15328341855531
  C   5.18322882987767      1.42711474850496      0.01895663910488
  H   2.91007399688868      2.84822170770798      1.31672643659542
  H   1.99222694657040      2.56429351767555     -0.15559447741319
  H   3.30326996798375      4.73537800327078     -0.15131830413687
  H   3.66346610977857      3.68642595583559     -1.51334293296956
  H   7.89643993167784     -0.27769512277115      0.64768827438445
  H   7.88204723500660      0.16262022422193     -1.00950412816456
  H   5.34180764209721     -3.06932731720296     -0.37707733797870
