26
Coordinates from ORCA-job 6275optt
  Br  1.16677469343471      0.29158841394902     -0.09003374584503
  C   3.11363157368429      0.17137262605288     -0.02063441057348
  C   3.68197934049215     -1.10803676355183      0.00127562831273
  C   2.89098617253448     -2.39671986380438      0.05854467688341
  C   3.77404523660697     -3.56990010396614     -0.38009994752936
  N   5.02047645308282     -3.53671040778918      0.36254710870529
  C   5.84802600196706     -2.41688000038220     -0.06082334463693
  C   5.09370022676829     -1.11099575410642      0.01153367821439
  C   5.78518200605808      0.07353870458515      0.01949894398668
  C   5.08873254296972      1.30691034134065      0.00927282463338
  N   3.72115623279874      1.30644272968949     -0.02301683483007
  C   5.81858841255191      2.54105620898999      0.02155388884631
  O   7.07783049040907      2.58085539752546      0.03644176894730
  C   5.05087390606508      3.77063233201637      0.01819588356763
  C   4.46028038710137      4.82077719620373      0.01805198060555
  C   2.34040886572759     -2.64832784447862      1.39826445646263
  C   1.88859829665166     -2.86711010838562      2.48721497779908
  H   2.04434587174423     -2.32891825041645     -0.63021028045777
  H   3.93589458408495     -3.48089471432850     -1.46690032735238
  H   3.26015332868968     -4.51042179907058     -0.18108394745258
  H   5.52509685498166     -4.40554554174383      0.25117177201127
  H   6.19602560143327     -2.54290364295771     -1.10034017774828
  H   6.73168391386178     -2.36090828054643      0.57581282034413
  H   6.86736118480559      0.10057867168908      0.02636326542542
  H   3.92337837699279      5.73719171847299      0.01757527803129
  H   1.49578944450194     -3.03067126498694      3.46082406364939
