21
Coordinates from ORCA-job 6277optt
  Br  1.15869721219155     -0.25100880807137     -0.35796944689245
  C   3.02576284612340      0.00329827073834     -0.22397585221867
  C   3.59882720978238      1.23962724193022     -0.06614379296461
  C   2.92077287519236      2.47893712617126      0.03629383133833
  C   3.64671748685434      3.64229021884858      0.19900614855142
  N   4.99690017513532      3.67866117609239      0.26077342520647
  C   5.64187845015563      2.52942411657339      0.16364691039758
  C   5.03998892056157      1.26339335058489      0.00286808797129
  C   5.75418839009134      0.06685551135723     -0.08955312734676
  C   5.12490892600510     -1.18487195372900     -0.24084156395824
  O   5.60739869275031     -2.29066695018438     -0.32887326217208
  O   3.69819388305499     -1.15315513314349     -0.29916822125854
  C   2.98517755386766      4.93796841230939      0.32434396913947
  C   3.56897143941202      6.16877454874726      0.51134073531075
  N   2.69895934493574      7.20495248245285      0.60470900854738
  N   1.46973371009294      6.87265109424354      0.50209253879790
  S   1.31159957678060      5.21804218307015      0.27827650224695
  H   1.83941814813355      2.50337808668487     -0.00610916300581
  H   6.72636776900185      2.57691293094783      0.21432514679837
  H   6.83358802269957      0.05727850587830     -0.04378717923376
  H   4.63094936717775      6.33525758849771      0.58574530474501
