26
Coordinates from ORCA-job 6278optt
  Br  0.98935686012660      0.19942509450875     -0.03498041555100
  C   2.89939741627472      0.10104458888791      0.01051760747777
  C   3.56682470362202     -1.11300990742735      0.03515894711005
  C   2.77531794533939     -2.40809106464289      0.08217092250123
  C   3.62461566090812     -3.58634963815688     -0.38642589648865
  N   4.85401955723846     -3.60787195022018      0.38264012862974
  C   5.69824235078439     -2.47719504396760      0.02577999558208
  C   4.96595328000015     -1.15694755989233      0.06506013496079
  C   5.81061600364761     -0.02141893924053      0.04961542491494
  C   5.43952377151918      1.32173233993434      0.02525737767487
  O   6.13784082989411      2.33146238822266      0.01543953379882
  S   3.62862238315561      1.68173518591840      0.02198410648747
  C   2.24707389389452     -2.66887007726046      1.46551513274908
  N   1.46435574891565     -3.70299734137162      1.74627630879289
  N   1.24664091198037     -3.59037657642778      3.04226188610466
  N   1.81690756271710     -2.56763592998005      3.64280014232716
  C   2.46348228147484     -1.95886378529530      2.65903902347624
  H   1.91761306953852     -2.32752379472270     -0.58962636130028
  H   3.80973521369992     -3.47566218904209     -1.46747222335638
  H   3.07508984012925     -4.51384672885403     -0.22029273311470
  H   5.35481179276848     -4.47278659113933      0.22693388768582
  H   6.12683962120627     -2.60235284014666     -0.98699250721515
  H   6.54070212870303     -2.43603997401707      0.72102477921689
  H   6.88451549637986     -0.18101149294784      0.06553284231054
  H   0.67344454141267     -4.24608839772774      3.54269323151442
  H   3.04045713466906     -1.06345977499157      2.81608872371070
