23
Coordinates from ORCA-job 6280optt
  Br  1.03935777713814     -0.03497841398487     -0.05701536435321
  C   2.94868091208056     -0.03906052827489     -0.05653420579456
  C   3.61715950982469      1.14774452047617     -0.05620824939114
  C   3.02018022668263      2.46188613000411     -0.05609141329267
  C   3.79007043588731      3.57794365898936     -0.05573104471676
  N   5.14097741785229      3.50278107487940     -0.05554762897513
  C   5.78914335531193      2.28330400139588     -0.05562828294135
  C   5.07744663895003      1.08859773571502     -0.05595253569761
  N   5.74790524943558     -0.06903646939032     -0.05601804948281
  C   5.05995330104413     -1.21604136149998     -0.05626862245627
  C   5.83958695476457     -2.44702573016408     -0.05627644930840
  O   7.04270828835112     -2.53710203703514     -0.05614811031242
  O   5.13148960300529     -3.63243203946796     -0.05650219582376
  C   3.75561558676978     -3.74412869931578     -0.05673468733915
  N   3.24296934899388     -4.91898630103024     -0.05690074683338
  C   3.00218593362186     -2.53408126292749     -0.05675913013060
  C   3.62786461073445     -1.31257312136491     -0.05653179483766
  H   1.94626355692906      2.56473368620882     -0.05626695143231
  H   3.36807824945274      4.57321827240559     -0.05558013461523
  H   5.68446126583822      4.34605413392074     -0.05505150038611
  H   6.86714574549821      2.28903555502337     -0.05545845434714
  H   3.99344217538907     -5.60621345895234     -0.05683488621037
  H   1.92931385644440     -2.63263934561044     -0.05695956132196
