26
Coordinates from ORCA-job 6283optt
  Br  1.13025926142880     -0.29208987868675      1.09140039985650
  C   2.88684730278254     -0.17990577776183      0.17732261177423
  C   3.62780291548990     -1.36078010131708      0.04441943960265
  C   2.96961306190880     -2.69509378164862     -0.17148445422777
  C   3.94877105353797     -3.70162796900937     -0.76444466008640
  N   5.23612266017681     -3.67083230290299     -0.04719520385094
  C   5.88961944979107     -2.37892484752525     -0.23821816961298
  C   4.99671778948556     -1.20570384287508      0.08693578510686
  N   5.64996923065927     -0.06161070852878      0.37402114015556
  C   4.93756108614615      1.04727799690610      0.60256238124878
  O   5.33760849547105      2.13551345268442      0.93166178821553
  O   3.51261726360502      0.98172966254181      0.41684115470193
  C   5.22114258058748     -4.14710380792826      1.25970875336146
  N   5.55256486930029     -3.56893208220816      2.33730680702069
  N   4.81244251378039     -5.49401252611000      1.36549158209449
  C   4.99504843094907     -6.46782840580875      0.43182487675858
  O   4.75716595416840     -7.63763420224066      0.62553152424213
  H   2.10733493170083     -2.58795243224721     -0.83435791109549
  H   2.58065721745571     -3.08025276639658      0.77891311552607
  H   4.16994633028391     -3.45277899363744     -1.80474264463854
  H   3.52927634433963     -4.70637293520190     -0.74391667617285
  H   6.20726714875301     -2.32265051253537     -1.28476433310242
  H   6.79154855566797     -2.32967497008213      0.37057487263992
  H   5.71435701814271     -2.57446463248649      2.19764909398757
  H   4.59225306269494     -5.79517639907706      2.30457284854420
  H   5.38148547169260     -6.08111723591648     -0.52061412204977
