25
Coordinates from ORCA-job 6284optt
  Br  0.98497937305431     -0.00119442725759      0.19242678237936
  C   2.88911412335246     -0.04773714200123      0.02814870431545
  C   3.58264641965100     -1.24850025197055     -0.00554299012355
  C   2.82739284238298     -2.55914702089664      0.02786862010378
  C   3.71025609632072     -3.72094041810548     -0.41136601189244
  N   4.93768712710244     -3.68153184898673      0.35342737985297
  C   5.74903716197506     -2.54384954854327     -0.05556212546071
  C   4.97650482057942     -1.24779123116757     -0.06764257310948
  N   5.81328987858474     -0.17917592262786     -0.17615592733328
  C   5.44580583266600      1.07976595220507     -0.17810285695632
  O   6.12740681330128      2.08486383283463     -0.27649137921341
  S   3.62747698547254      1.51775757116338      0.02394076245528
  C   3.01315367986214     -5.03172021230852     -0.23873981459011
  N   3.55659868065775     -6.06685810809283      0.36885733075625
  N   2.60199768051398     -7.00996676773855      0.26255804343929
  C   1.53893473323684     -6.51735841377116     -0.39005101237764
  N   1.75999395412799     -5.27284792089417     -0.72776509621707
  H   1.95496431483623     -2.50935359889517     -0.62418001858181
  H   2.45976250978755     -2.76214268408906      1.03931859783279
  H   3.90155341698519     -3.60322413263836     -1.49398566584828
  H   5.44991636774257     -4.54905549042982      0.25325409215479
  H   6.19012617989831     -2.68845243816419     -1.05812948052410
  H   6.58109587323019     -2.42670257955429      0.64083878793954
  H   2.74210902156809     -7.92052874128636      0.66341539311061
  H   0.64919611311012     -7.09230845678362     -0.59133954211192
