27
Coordinates from ORCA-job 6285optt
  Br  1.06519406326308     -0.17644601462773     -0.24159890133900
  C   2.95771677260554     -0.05017868517045     -0.13241871715552
  C   3.62318583898457      1.20603184543781     -0.03139008574363
  C   5.04416426074059      1.19826800309910     -0.02599777582863
  C   5.82352098499994      2.48657327478496      0.03954007032858
  N   5.11250944161947      3.62833620845236     -0.53186353283140
  C   3.83411006401658      3.74196687150269      0.13646798558951
  C   2.90440037132202      2.51640406371205     -0.06439372500547
  O   1.82921437643494      2.64858825017791      0.95963566853042
  C   2.08793833424544      2.39000026720353      2.22931078114241
  O   3.15709294217550      2.25334279467839      2.75568816237235
  C   2.19634785835834      2.69232919479640     -1.34274697264237
  C   1.75553806395677      2.88817200106463     -2.44224722610166
  C   5.71537190904297      0.01982575891812     -0.07982840050120
  N   5.03586304680632     -1.19676083291008     -0.02979212321606
  C   3.63577965324626     -1.30020435007868     -0.15609698471301
  N   3.05887826122563     -2.46092701750375     -0.26882948895714
  H   6.78351469258593      2.36682306378517     -0.46818143364181
  H   6.03453532466491      2.74532649502234      1.08298290532801
  H   4.94976575433825      3.45684930026783     -1.52104429734813
  H   3.29991611202875      4.62784242257462     -0.20820613029222
  H   4.02500771848470      3.84099274645202      1.20475571715638
  H   1.13651769462767      2.33227647938169      2.77931489042693
  H   1.33882342600889      3.00409525535008     -3.41254231246954
  H   6.79555728805100     -0.03726948727886     -0.09455384458293
  H   5.53841764563240     -2.02455639134809     -0.30083310682729
  H   3.76011810053340     -3.19770151774414     -0.23013112167759
