18
Coordinates from ORCA-job 6286optt
  Br  0.99327084102711      0.66158235504471     -0.51031510095283
  C   2.82497530586485      0.34285639431011     -0.15030067703264
  C   3.33987916798098     -0.88963936712519     -0.16675936688405
  C   2.74715202734746     -2.19127794008739     -0.54908670675582
  C   2.97419480915522     -3.11849058743161      0.38481312693142
  N   3.77945424482408     -4.24339286044476      0.13418738009963
  C   4.97895034925320     -3.74025717921692      0.03374491890213
  C   5.41809413961329     -2.35662327761521      0.10190643710320
  C   4.78292880776911     -1.09738962661198      0.09169555535258
  C   5.64621143022894      0.01921251393580      0.22425053864301
  N   5.32133517087500      1.31744206163999      0.24991729059422
  S   3.74154379435669      1.79281006793150      0.16276140668857
  C   7.06287736006756     -0.35056163754870      0.31626797595285
  O   8.03864681018171      0.36106730452454      0.42196462034096
  S   7.15883713618790     -2.13700585574797      0.25062040913521
  H   2.90596758089910     -2.48023721151672     -1.58580159910509
  H   2.91788396648665     -2.83416530064594      1.43767029970887
  H   5.78879705788113     -4.46192985339425     -0.07653650872220
