28
Coordinates from ORCA-job 6290optt
  Br  1.19797876112879     -0.26634190973808     -0.78393578994081
  C   3.01446848936154     -0.21336285523338     -0.27596773001893
  C   3.80531346075372     -1.33203448005738     -0.15665610764209
  C   3.42180374149637     -2.68094416594847     -0.35911552202121
  C   4.36598500967759     -3.66286563285060     -0.21836587623630
  N   5.65266426211725     -3.43201030026795      0.11129962253708
  C   6.03867230241178     -2.17631357996594      0.32372535061246
  C   7.49043216232046     -1.91584502489271      0.64439203019178
  C   8.25893639017962     -3.17537632654465      1.05876569112181
  C   8.81035512121084     -3.75141741723008     -0.27122180006631
  N   8.48539300680953     -2.79175398681155     -1.34102123963696
  C   8.23415883106544     -1.52438804817770     -0.64949023456076
  C   5.17198640916885     -1.06021761052469      0.19902099120831
  N   5.63285882139615      0.19042686550182      0.39457596966521
  C   4.80756086874877      1.24384713751828      0.28039180449003
  N   5.06790698731547      2.48341138064712      0.44398055815866
  O   3.44835551443362      1.03438401973023     -0.06810625649975
  H   2.40150219573490     -2.92389072740738     -0.62455822413403
  H   4.09773438889242     -4.70268071277163     -0.37506393250052
  H   7.55034989612134     -1.11651451974206      1.38186956523121
  H   7.61572140450539     -3.88734045596967      1.57160323542962
  H   9.08051421343633     -2.90085712114716      1.72346319508026
  H   8.37046124742001     -4.72037414557502     -0.50447814412467
  H   9.89532318276440     -3.87524706422626     -0.21696800543766
  H   7.60056948983591     -3.08427357450544     -1.74329288789660
  H   7.66404538801574     -0.83598615132371     -1.27107421020114
  H   9.19308272185622     -1.05742805851864     -0.40168086658322
  H   6.05186573182136      2.54339446603275      0.68890881377452
