30
Coordinates from ORCA-job 6292optt
  Br  2.25375304990015     -0.90441957873885     -0.44359788028909
  C   2.69735092487214      0.77502431371399      0.37516648463800
  C   3.01104254676806      1.81507994629762     -0.42866325024848
  C   2.70379262310250      1.92237843195452     -1.89214084413976
  C   1.18955643358416      2.10715143761520     -2.06913737875400
  N   0.71061641733574      3.37837661303370     -1.53211841348365
  C   -0.65755324983103      3.33906546099891     -1.01241778626142
  C   -0.78552446113991      3.40085236286305      0.52612692325272
  C   -0.28344823094137      4.74133300923862      1.10152711713773
  N   1.09408259174921      4.39599208012295      1.39829935909446
  C   1.11766697597693      2.98459834302200      1.59300561860963
  N   0.04732889956575      2.38932485586259      1.15758357070430
  C   2.32681879685735      2.41499622771634      2.11216272255867
  C   3.48388547820003      3.02569570824463      1.50270099230530
  O   3.50607035523018      2.97308592916570      0.07631656831273
  C   2.42845932011603      0.94304809423741      1.83449997216043
  N   2.24054462985437      0.00671135169364      2.67344837081200
  H   3.01433138584012      1.02284344403009     -2.42243906215115
  H   3.24274298125792      2.77755132266999     -2.30322596333950
  H   0.69733144488054      1.26309920123527     -1.57301340272574
  H   0.95033644366449      2.04875632363719     -3.13813374917945
  H   1.34095581282569      3.71769563457629     -0.81236569818446
  H   -1.12866688111812      2.41064410917986     -1.34738678797868
  H   -1.24624334122780      4.16472289722504     -1.43462819664785
  H   -1.84630855453710      3.25145957625605      0.75649116634201
  H   -0.84902783206350      5.01096257286403      2.00302444880915
  H   -0.35473231019703      5.56232664686263      0.38298379786421
  H   1.56839501696609      4.91442639734666      2.12192871187197
  H   4.49867941208645      2.97452311461497      1.88610220318825
  H   2.32076332042194     -0.89930582754013      2.20690038572166
