27
Coordinates from ORCA-job 6297optt
  Br  1.05289241449066     -0.45211979283547     -0.27343980522662
  C   2.91198629408185     -0.07518183604137     -0.10520238195456
  C   3.47124952071411      1.10049057155918     -0.40723743078094
  C   2.73065762960634      2.24261854850316     -1.03880265378412
  C   2.64275437481098      3.49097217145029     -0.15403682991688
  N   3.89459860399261      3.90611472005837      0.46235633147946
  C   5.07229939677462      3.73671634536469     -0.38547395993161
  C   5.69273332889082      2.34737105293595     -0.37038776982481
  N   7.03065789598357      2.36185215655693     -0.39433906850739
  C   7.71215706286276      1.17912304053212     -0.30708227506449
  N   8.98607597498174      1.03558262203568     -0.44517180809578
  N   6.98611840385892      0.02886482670045     -0.00258718720322
  C   5.60683417296837     -0.02278262064222      0.00352583622988
  C   4.94723483972744     -1.23677823154062      0.30389426908596
  N   5.40645257878500     -2.40609634022147      0.59049624303948
  O   3.54871278051962     -1.17311103037936      0.34031993979842
  C   4.92183557254733      1.18654938992997     -0.24752787097118
  H   1.72463925221792      1.93893550632244     -1.32516247955286
  H   3.25954430477480      2.49946430723387     -1.96103048271318
  H   1.91767653639906      3.31976022426835      0.64480595065553
  H   2.25845683412331      4.31603958016693     -0.76427959936075
  H   4.03990055935535      3.37045200139658      1.30993372657469
  H   5.86110718830401      4.41133332827070     -0.05220910243739
  H   4.81029497359582      4.04574559398600     -1.40246606462939
  H   9.37281197380765      1.95522736048995     -0.63611571248444
  H   7.53469665259236     -0.81301102478483      0.05041804066864
  H   6.42062087923292     -2.39613247131632      0.60280214490756
