25
Coordinates from ORCA-job 6299optt
  Br  0.89778891595326     -0.28987989618161      1.32898664780627
  C   3.10098868269718     -0.13673302964785      0.09555464469197
  C   3.66209100452201     -1.34591758572409     -0.11986922497779
  C   3.06093508162904     -2.69508750665487     -0.39580307722886
  C   4.23243059842325     -3.63039782401587     -0.05514422480756
  N   5.42629249689581     -2.78823472547363     -0.24030250104141
  C   6.70716314771491     -3.29362605076730      0.18443703492120
  C   6.88820076296625     -3.28253187205209      1.67731682460903
  N   6.35923861957664     -4.17709728371151      2.45695995488483
  O   6.69371164960589     -3.75284841106604      3.72844888727640
  C   7.40692461069113     -2.64554113661225      3.57465634618558
  N   7.57978955675244     -2.29676261802100      2.35037629509698
  C   5.07107798995489     -1.46642573737104     -0.02287719578007
  C   5.87625879716971     -0.40102105193626      0.26720573117555
  C   5.26578824655208      0.87764587612157      0.47465893022667
  O   5.82359591740374      1.91795468238565      0.73582481064691
  O   3.86677229368077      0.91939573770935      0.37123701245038
  H   2.77735051180749     -2.80212822685926     -1.44627109905575
  H   2.18019412889879     -2.87740991127085      0.21822020716207
  H   4.29664250602848     -4.50973974280739     -0.69860715946905
  H   4.17023810414047     -3.96685234541113      0.98633582449771
  H   7.50033435649429     -2.68649808523771     -0.25345666695769
  H   6.81122574944018     -4.31631849216538     -0.18015867691981
  H   7.76148562724430     -2.15682197985031      4.46839225692803
  H   6.94348064375677     -0.46512278337906      0.41287841767838
