28
Coordinates from ORCA-job 6302optt
  Br  1.35782475055024      2.07211675321656     -0.50020899457152
  C   2.83617115081025      0.86019030877313     -0.31912618487108
  C   2.67863819130234     -0.52270597631188     -0.44157279539394
  C   1.33573652960133     -1.16023771144739     -0.70455166344084
  C   0.87131177044413     -2.05821007837360      0.45530853276768
  N   1.41146834669126     -3.40304355028011      0.40264190176742
  C   2.83942355746481     -3.53605733436425      0.66312486326723
  C   3.71857272533794     -2.85030910457917     -0.38810706754381
  C   3.79383080200062     -1.34972879451295     -0.26793709465324
  C   5.06012922102360     -0.77599612008246      0.04077734076280
  N   6.19542314038877     -1.44999244450012      0.24885361062123
  N   7.25778394235112     -0.70819773439670      0.51562520708958
  S   6.82007708507989      0.98061010454120      0.51012599305330
  C   5.16704052628628      0.64425541804771      0.14364949517323
  C   4.07522780583149      1.45901486498383     -0.03169376171220
  C   0.79588184308839     -4.35458464438518     -0.35609656866581
  N   -0.30739509998522     -4.32004294538730     -0.99874958229646
  H   1.37518950524254     -1.77171133479411     -1.61231094584521
  H   0.58657140305014     -0.39050150193958     -0.87463062792882
  H   -0.21713709867904     -2.13258273575629      0.47291325842845
  H   1.18064426613915     -1.60983362399248      1.40203651915704
  H   3.06361195269065     -4.60454538397207      0.69693949519018
  H   3.05424537900685     -3.11728092896222      1.64940650050114
  H   3.35154554320807     -3.15223954342282     -1.37739796427906
  H   4.73524791406961     -3.23132079068097     -0.28790101331829
  H   4.15061248409134      2.53408487165858      0.05077169284343
  H   1.35396046836165     -5.29245559001106     -0.36654200930912
  H   -0.73463810544825     -3.39669444906828     -0.97134813679333
