25
Coordinates from ORCA-job 6307optt
  Br  1.47645739382962     -2.09307330385299      0.32547685265791
  C   2.92098440067749     -0.87510745675721      0.17433076069029
  C   2.75025269661201      0.45778472349143      0.20023876112415
  C   1.54761223977995      1.26740434282078      0.43118333251332
  C   1.15393795251513      2.08865856685845     -0.53366103423371
  N   0.76229517377594      3.39363614523529     -0.18427775370850
  C   1.90569015795960      4.19271860474907      0.12348528533960
  C   3.20547565208179      3.85232987716104      0.25086071777743
  C   4.07147738316522      2.67825293207304      0.14078019203451
  C   3.92739612338492      1.28554033989187      0.11345175156082
  C   5.23160279166352      0.66585111348311      0.05847589923536
  C   6.19628648445712      1.65286739894757      0.04198490159102
  C   5.52615168691970      2.92700567513006      0.10040995035402
  N   6.05927094357520      4.13097022017344      0.11876238849640
  C   5.38064788086866     -0.76453124522316      0.02010049977742
  O   6.42168224789432     -1.41276385447391     -0.04285298403049
  N   4.16152170374974     -1.46085279564618      0.05971841315738
  H   1.31216564594682      1.53895475928944      1.45732740629815
  H   1.40598935567643      1.88358915536620     -1.57330469564451
  H   0.16606730123344      3.85630151156572     -0.85693160627482
  H   1.64173667331948      5.23235354412223      0.28317252754020
  H   3.81724338232350      4.72046150186925      0.48033270570509
  H   7.26480820574308      1.50715017447930     -0.01719190219330
  H   7.07404901026636      4.03374181699494      0.08692672374372
  H   4.24119751258088     -2.46424374774881      0.02420090648853
