29
Coordinates from ORCA-job 6315optt
  Br  1.13430150629940      0.34678465616684     -0.48922106898397
  C   3.02548327462037      0.06096108587150     -0.25045724548033
  C   3.53248531178737     -1.24909417516883     -0.29135711647642
  C   2.72403344598892     -2.48835436485665     -0.07089344934798
  C   3.50383187761339     -3.73197304782928     -0.46616131456306
  N   4.81084028662224     -3.75337072941666      0.18341046060499
  C   5.50254591143588     -5.00179345571823     -0.06545968275183
  C   4.84146156353093     -6.15675145636129      0.54886098214528
  C   4.30799078463995     -7.10645637031135      1.04832613034805
  C   5.64200029968170     -2.64343604513869     -0.29285578047179
  C   4.96297459182108     -1.32043877918354     -0.12538418798037
  C   5.65664120904979     -0.15475279771464      0.06213486323895
  O   7.04628197523197     -0.29329386871649      0.18705243045017
  C   7.81511521754753      0.79477333028609      0.35499641930078
  N   9.07052957114041      0.73087153472371      0.50725744577663
  N   5.16857608850574      1.08361240895736      0.11149278423901
  C   3.80969112541356      1.16581124066292     -0.08135889564069
  H   1.79152269187012     -2.45417659380935     -0.63785250081663
  H   2.44792928364680     -2.59553540175641      0.99105594633328
  H   3.63149090633449     -3.75633045413181     -1.56542268322772
  H   2.95773784405623     -4.62925891325950     -0.16962875575196
  H   6.51186411106122     -4.92464896240063      0.34678581627668
  H   5.61460223563682     -5.19687590617934     -1.14853940203778
  H   3.82656443712971     -7.93805634083742      1.50220806232054
  H   5.87271722855240     -2.81158824260308     -1.36777875701419
  H   6.58699054215843     -2.65922916223308      0.25015218523850
  H   7.27261227607555      1.73279716832350      0.34886887429626
  H   9.36800928559022     -0.24574601412730      0.48337558880157
  H   3.38217511695768      2.15954965676167     -0.11660714882597
