24
Coordinates from ORCA-job 6316optt
  Br  1.66188128508316     -0.37740763472288      1.86618863531052
  C   0.61377102873414      1.12270805000615      0.18391131186104
  C   -0.07199822715691      2.24451076983019      0.47131104901031
  C   -0.87439240555122      2.51307240842130      1.68082907551241
  C   -1.53038244663919      1.56623809618790      2.64336689751943
  N   -2.74186126079810      1.97766415926772      2.55393703519209
  C   -2.36623620105441      2.84093060467336      1.39672773082905
  C   -2.65631767090811      4.27979480890685      1.25889460445660
  C   -1.91396375020213      4.95275936732678      0.35009355895644
  C   -0.84841394414464      4.45865664726532     -0.52206133975396
  C   -0.10176282770960      3.31274582438695     -0.48950308549894
  O   0.77999380078913      3.22023019501057     -1.55105094820248
  C   1.56007206901154      2.14384814978468     -1.79596593973994
  N   2.36922350136997      2.22464124384068     -2.76814113144937
  N   1.35499267844126      1.06541988689522     -0.95993326684670
  C   -2.22632970694029      6.34935383188878      0.16452333023377
  N   -2.47296053105056      7.46059401151817      0.00768667413620
  H   -0.43848380720888      3.34458695008596      2.24210472952637
  H   -1.14332014201501      0.79200122418859      3.29943921054729
  H   -2.66447141761238      2.33008583655990      0.47591060625808
  H   -3.40179859543950      4.78570490882025      1.85837674142271
  H   -0.59081810777299      5.12452739008358     -1.33592188793412
  H   2.90183779343627      1.36497667332937     -2.85607964350196
  H   1.95373888533849      0.26235659644451     -1.08164394784484
