28
Coordinates from ORCA-job 6319optt
  Br  0.91728823863531      0.10020156215943      0.54915135571651
  C   2.82417819171648     -0.00995033428029      0.33725847231297
  C   3.43781113894608     -1.23067050312108      0.16767986241619
  C   2.69978316406770     -2.54194751122401      0.17618012813735
  C   3.57879821460745     -3.67295260460554     -0.33165084044518
  N   4.87301203534905     -3.61241136666952      0.33217547249777
  C   5.65737295325288     -2.44797564332982     -0.05020756603511
  C   6.32018722221807     -2.63906405439154     -1.47077918404637
  C   7.21739453759739     -1.45770679477618     -1.87373829935507
  C   7.82337228496959     -1.63061515266353     -3.18993005882771
  C   8.30753727919524     -1.78587345242389     -4.27606089232766
  C   7.08229215108355     -3.89330942376140     -1.48024700967286
  N   7.64247189650924     -4.89426827683053     -1.42063827594492
  C   4.83033326540913     -1.20266167485874      0.02458114433394
  N   5.53602205985752     -0.00084115638858      0.11580063867213
  C   4.79552943786674      1.07829967370393      0.27612418698949
  N   3.47569100602355      1.19206032897564      0.37758993887704
  H   1.79326216576640     -2.46767535685792     -0.42774178039862
  H   2.38279727559901     -2.76037685825013      1.20036251158629
  H   3.65919758363299     -3.60374706315190     -1.42779709117600
  H   3.12175667920097     -4.63744782137999     -0.10366470515269
  H   5.40186140203598     -4.46343463924175      0.18717525548286
  H   6.49494540899654     -2.34782505908060      0.65281343283289
  H   5.52255832205235     -2.74056380103798     -2.20990463547781
  H   7.99511029459496     -1.31981749876493     -1.11889088128177
  H   6.60994438139400     -0.55384839463668     -1.84503843096399
  H   8.73868859852527     -1.92334512280045     -5.23748626988584
  H   5.34280281089619      2.01876799968813      0.33788352113620
