28
Coordinates from ORCA-job 6322optt
  Br  1.41343389811696      1.09399299264192     -0.75832504120360
  C   3.18069613317374      0.40564075103225     -0.78231331370319
  C   3.43278328827779     -0.97824834603899     -0.87953290867921
  C   2.37263916777209     -2.03660557920522     -0.88388080982479
  C   1.92816251952657     -2.49969732777521      0.50786844344579
  N   2.85557713150819     -3.43136251398929      1.16129069118091
  C   2.23749571143031     -4.00893560951819      2.34717534777524
  C   1.06040387736212     -4.83182123503916      2.05100750194659
  C   0.09274055338816     -5.50539224438444      1.83837383132033
  C   4.15074153990189     -2.83256927553419      1.50463541205820
  C   5.27369648517469     -3.16445385715553      0.52906640250402
  O   5.07869182440032     -2.68262341651234     -0.78680264776765
  C   4.77720988417935     -1.33533836429084     -0.82590640326281
  N   5.81521417336391     -0.54572553470789     -0.72827938211493
  O   5.51960589448408      0.82836014246282     -0.75927916584915
  C   4.22922937789350      1.35263561260963     -0.72979836195298
  O   4.15909271265407      2.56625835904933     -0.67471282854343
  H   2.72212594207227     -2.91092671439804     -1.43369035061642
  H   1.48695573160428     -1.64925821816182     -1.39035051274384
  H   0.97463105250381     -3.02142848040584      0.41039860840545
  H   1.75922131181590     -1.61505442342949      1.14523469637571
  H   1.93804905072330     -3.23568755319782      3.07722452148931
  H   2.96922564897417     -4.64974743915512      2.84347572852014
  H   -0.76568478562118     -6.09736440227203      1.63260183173734
  H   4.47955001350560     -3.22160077481480      2.47298288744555
  H   4.06130408191690     -1.74498203397338      1.61939946419994
  H   5.36115686520736     -4.24799661278673      0.43562042978877
  H   6.20905091468974     -2.75706790104954      0.93051592806871
