26
Coordinates from ORCA-job 6329optt
  Br  1.21420063491205      0.02562784603969      0.62759654807205
  C   3.09019583517396     -0.11859155909823      0.46019529616624
  C   3.68009711115751     -1.24814020132399      0.04722162758300
  C   3.06972889267840     -2.50552214603241     -0.30641559689051
  C   3.86244524496070     -3.59057657515499     -0.41758816939613
  N   5.21539977860693     -3.57667071461741     -0.19465456288554
  C   5.78572031810919     -2.40663907928560     -0.04639423590351
  C   7.27034537736425     -2.36476613243698      0.21232163144350
  C   7.78463371280205     -3.71493467902900      0.67426407263263
  C   9.24822117174102     -3.75099016534634      0.97785238977988
  O   10.01938143432685     -2.83640015168139      0.86611754166663
  N   5.10287332360351     -1.22302667039647     -0.06061483965644
  C   5.75156930244640      0.04163399800737     -0.30584894199152
  O   6.84264708438311      0.08645769256778     -0.91197461885172
  C   5.05382846377014      1.21712198084272      0.15776742643445
  N   5.46973095467171      2.43064298193048      0.02368220832405
  N   3.81716184290271      1.01926487677478      0.81917024752211
  H   2.00183250098462     -2.55711670050564     -0.45924782120489
  H   3.44250850367478     -4.55639546109130     -0.67636914727857
  H   7.48158449391518     -1.59422553033670      0.95662099592177
  H   7.80001009740744     -2.03047279439235     -0.67885552274576
  H   7.58401927036303     -4.49084437996514     -0.07173165503791
  H   7.25615111873311     -4.06896622721161      1.56673389168152
  H   9.61838894698960     -4.73593551020594      1.33754685906307
  H   6.37616237334912      2.38541620162934     -0.43943570948346
  H   3.29516221097254      1.88104910031936      0.88204008503505
