29
Coordinates from ORCA-job 6332optt
  Br  2.11873086517431     -0.07358253285434     -3.48648038569327
  C   3.12277936855388      0.09976818028778     -1.23512769395990
  C   2.86175510701477      1.29643613743310     -0.62395710488160
  C   2.82733253387153      2.57896805745425     -1.40983810156781
  C   1.41906031826252      3.12554687002233     -1.68319335264817
  N   0.78273443107335      3.73334608405633     -0.49890078188234
  C   -0.14989320765343      2.88233786032382      0.26181233359283
  C   -0.01290546094731      3.14889424149426      1.77467709503672
  C   1.20455292448231      2.44041785041178      2.39835545953803
  N   2.31632716223229      2.35649639317949      1.46497717659767
  C   2.50518599918324      1.19652074316075      0.74529478161781
  N   2.31471374761570      0.05665868440457      1.38596301626798
  C   2.54976261219332     -1.10945166572485      0.75042528138935
  O   2.41518155271653     -2.21735812386104      1.19750763287229
  O   3.04165611229979     -1.03811869778856     -0.58054187383680
  C   -1.53695628626609      3.10062416761961     -0.17524892540105
  C   -2.65437769813012      3.34601142042434     -0.53518534605962
  H   3.28571025041042      2.36664415536038     -2.37591643135814
  H   3.42170214771592      3.36804022847823     -0.93341108512629
  H   0.80893913836710      2.32471228855530     -2.11317852139552
  H   1.50341822675147      3.90773277311734     -2.44029571799301
  H   0.29361792757141      4.57650952171370     -0.76640234550374
  H   0.10423011581454      1.83804339386208      0.05800669734516
  H   -0.91702949305820      2.82506492414789      2.29308590062428
  H   0.05859494439251      4.23245285461913      1.89853586077395
  H   0.95326684064760      1.41887739455752      2.67668113056084
  H   1.50839836527577      2.96493506325367      3.30689227229733
  H   2.38100938328003      3.18042811113664      0.88459929221323
  H   -3.64649792884522      3.54104362115443     -0.86313626342024
