23
Coordinates from ORCA-job 6334optt
  Br  2.28064170495793     -1.49043135223635     -2.27177248309480
  C   3.16936364068982     -0.29292352600533     -1.07721564935129
  C   2.99557192596371      1.02649146695057     -1.14032112902079
  C   2.00119853448002      1.87424526732239     -1.81333432568959
  C   0.74189160578378      1.88101597864538     -1.35427794215074
  N   -0.11786894965863      2.95823031121161     -1.45299351196305
  C   0.02056122756552      3.94364092641989     -0.61301608749354
  C   0.88893971272215      4.13943883378495      0.50994665098844
  C   1.66356447995970      3.16867601293182      1.11538899957449
  N   2.54616787147524      3.32510909447603      2.11332449809819
  C   3.44000290378161      2.34971487276173      2.26712469136484
  C   3.77783568076236      1.40424659360773      1.24294000374133
  C   4.07439330740969      0.07633498866087      1.42913875368987
  S   4.18679992134759     -1.07656493361904      0.11780006368002
  C   3.78326948024313      1.87813530253960     -0.17205981043403
  O   4.33409560904663      2.88936251964621     -0.53298196502934
  H   2.38648260811107      2.77853876352367     -2.27192903653981
  H   0.37866024367363      1.01083439170855     -0.80163711312414
  H   -0.63149923182380      4.79282264155121     -0.82549924088115
  H   0.96273156553656      5.15539611845007      0.88095438532710
  H   1.51446196206337      2.14404412565044      0.78392461473282
  H   3.89266618654440      2.23496000925089      3.24958378502876
  H   4.10806800936450     -0.37831840723294      2.40991184854640
