24
Coordinates from ORCA-job 6335optt
  Br  4.91131885185816     -3.47487389151574      1.32101463566956
  C   5.12982546988813     -1.86987461904990      0.36591928037024
  C   5.55508861690513     -0.72100313868258      0.97467859691199
  C   5.73025076182036      0.45694762097164      0.14268828719896
  C   6.11732608892655      0.17672018342604     -1.11946495032308
  N   7.27386174646850      0.70861367459974     -1.75782738736146
  C   8.31187375315552     -0.21434802812216     -1.22412702038035
  C   8.37936549189030     -0.35694721933869      0.13911818993085
  C   8.60712707801800     -1.49019949187375      0.94694113249532
  N   8.19857579003689     -1.56246804043647      2.23944048832958
  C   7.09598387933892     -1.01220654301955      2.75423128822914
  N   5.93861545193162     -0.60669760251322      2.28087446917955
  C   9.29635413155011     -2.60783369859742      0.39071194942304
  C   9.88043101420948     -3.52398689847237     -0.12992218343705
  O   5.69339081741564     -0.93032646054431     -1.74545629245363
  C   4.95448727520832     -1.90597599737391     -1.06380230073048
  N   4.30247706092769     -2.75467922606020     -1.74088752150154
  H   6.11471727879446      1.34030449590212      0.62795267284968
  H   7.43272283905249      1.65078201321114     -1.41716434679851
  H   8.59629878936226     -1.00056945857765     -1.90896337633814
  H   7.98158104989597      0.46668408118455      0.71863823962917
  H   7.15185997064357     -0.92788856898805      3.84066890927903
  H   10.37728139581388     -4.34769651214624     -0.58001164874893
  H   4.44018539688775     -2.57747667398298     -2.73325111142295
