25
Coordinates from ORCA-job 6345optt
  Br  1.05633528707132     -0.09572218693824     -0.62943015447971
  C   2.94655322463656     -0.09720163112424     -0.37846280299365
  C   3.58712820767211     -1.23283522782908      0.01402976183430
  C   2.92245896682080     -2.49677962993966      0.26101510012997
  C   3.63718570291545     -3.62157036338725      0.43304805341911
  N   4.99860148770661     -3.61313302483141      0.40685076332146
  C   5.70575133339188     -2.43071142611977      0.23081535336068
  C   7.19008941472934     -2.58619191662903      0.09006990834263
  C   7.74466470055002     -3.82685632356956     -0.55574211392102
  O   7.21938190472189     -4.90685265246279     -0.65600569721732
  C   5.04567425108262     -1.21738034543490      0.17657307207090
  C   5.68551616786681      0.08198006586924      0.16186769011297
  C   6.95530559990943      0.30363617974479      0.80836742039793
  O   7.63222755547370      1.32973098590488      0.76121085650871
  C   4.99594842256458      1.18923238602020     -0.34389431226080
  C   3.61013039666542      1.18505849918443     -0.66847859380658
  O   2.98658392833723      2.17121770716613     -1.09513821137153
  H   1.84508359596432     -2.53805245070569      0.29043495333575
  H   3.17680318319729     -4.58731766002501      0.59255640611203
  H   5.49711192062722     -4.47581955153975      0.26035001680170
  H   7.72381324919084     -2.56612738081205      1.05671100147304
  H   7.59096432878609     -1.72600477975160     -0.45192410963634
  H   8.78385139174963     -3.70032174458582     -0.91823315089276
  H   7.29240114007937     -0.51678752287982      1.46849084007332
  H   5.50843463828940      2.14180999467601     -0.38008205071478
