30
Coordinates from ORCA-job 6348optt
  Br  1.68837181358145      1.31643818086395     -2.60458577367798
  C   3.23507379879312      1.88035296017166     -1.56897025396602
  C   3.24403345017553      1.69418212158842     -0.20120659596261
  C   2.04958041221526      1.91603232140499      0.67548618375672
  C   2.03720829583823      3.38410338470450      1.18113604999762
  N   2.23297332708855      4.35496126858812      0.11520422119306
  C   3.34743692099510      5.28693413656538      0.21694194462920
  C   3.89519062216166      5.71991371976535     -1.16259729862439
  C   5.42883956039546      5.56163108119748     -1.35266354760089
  O   5.82635334709141      4.36602616639661     -1.97505571088314
  C   5.19640671935445      3.24623396829281     -1.44047283596785
  C   4.23061424316579      2.57584003471582     -2.22581968892134
  C   5.38686520676247      2.93648054853830     -0.08240944623750
  O   6.18898884276161      3.46400619950113      0.71604692811641
  N   4.49470009674646      1.95798835896342      0.39599063023911
  C   5.92341049813337      6.73048586351063     -2.16281924041909
  O   6.42113882490700      6.70026383577458     -3.25192622495828
  H   2.04824164283853      1.26118662163263      1.55792859310011
  H   1.13985098160184      1.70819064564476      0.11250915809897
  H   2.84714123294366      3.49947410134565      1.90665858141267
  H   1.10225416468768      3.56468531249086      1.72695078591173
  H   1.37492783566010      4.80407395246578     -0.16436615279002
  H   4.14319660924236      4.79453392603113      0.77536200265671
  H   3.08227276260699      6.18662887194011      0.79509330887276
  H   3.62520235548224      6.76456760303937     -1.34682753709795
  H   3.41518495482500      5.12090995556567     -1.93876828930400
  H   5.91118811413957      5.64116556852270     -0.36400151165973
  H   4.22601035599607      2.70434261623364     -3.30050716002438
  H   4.59472472936585      1.79686919156087      1.38730641704026
  H   5.76461828044306      7.70449748298355     -1.64661753693013
