25
Coordinates from ORCA-job 6350optt
  Br  1.25934028958298     -0.13927411662321     -0.49362610694037
  C   3.13882424958652      0.01714367749622     -0.30107811928598
  C   3.69069897652934      1.19305550239159      0.15400004844116
  C   3.11333575727355      2.52093716042429      0.58114903732127
  C   2.62340468282947      2.39687927882598      1.96124497311386
  N   2.29253383361495      2.23418446078686      3.04764544194347
  C   4.35989695322910      3.44660621960606      0.46999893666391
  C   4.23882304682994      4.74752747414674      1.23422910407011
  C   3.02482903798820      5.52366567891887      0.71907770517547
  O   2.69989853634852      5.38529987776882     -0.50816274981007
  C   2.40335138007949      6.37622632450948      1.63184627994163
  C   1.96405618097767      7.20347404282346      2.43600868786879
  C   5.54504441033976      2.52922843967183      0.80473875111545
  C   5.08055479007834      1.19961534469893      0.28618392484818
  N   5.84446488993621      0.15835454007107     -0.01641454714943
  C   5.18627980282568     -0.90786041694305     -0.46380821712541
  N   3.87338570289342     -1.03315874779124     -0.62206739974074
  H   2.30945483874060      2.90167492582456     -0.05116956211482
  H   4.39858126238518      3.70169374732212     -0.59108505710194
  H   5.15979598004833      5.32520861095936      1.06637417124504
  H   4.16122059066844      4.56873977051621      2.31036293819166
  H   1.26655377617074      7.47264818660737      3.20117066021582
  H   5.69179934278713      2.45560431829521      1.88874536073689
  H   6.48679499622471      2.84390630974781      0.35748491151137
  H   5.78207669203157     -1.77338061005548     -0.73184917313535
