27
Coordinates from ORCA-job 6352optt
  Br  1.00724920042472      0.14741793363423      0.17026272993337
  C   2.88198559700276      0.06088473696893      0.00278357134152
  C   3.53979164867341     -1.11851498585085     -0.03069211531070
  C   2.85066130721413     -2.45223791475066      0.06164320721461
  C   3.76041290578102     -3.60816243563881     -0.32692621648086
  N   5.03724666713325     -3.46366430831356      0.35416832238672
  C   5.81106005916966     -2.34480967009684     -0.18389865259692
  C   6.34436783738195     -2.56909342401858     -1.62444580871818
  C   7.05810853502587     -3.89346103578491     -1.75420472193053
  O   6.39276356871532     -4.98930351746001     -1.69489688673766
  C   8.46413361305198     -3.85202708862681     -1.90585043144508
  N   9.62230071568397     -3.79325406424947     -2.03981016188079
  C   4.99246069635052     -1.07706388032374     -0.10926820765381
  N   5.64020170986939      0.03603649842663     -0.14811576244421
  N   4.93893961071554      1.17606822396377     -0.13059324835516
  C   3.57099647634244      1.34384589591860     -0.06498328797511
  N   2.96701552814846      2.47427459498842     -0.05564277128677
  H   1.94852707250857     -2.43643351195961     -0.55211259794134
  H   2.52493097480564     -2.57735855031706      1.09955242702282
  H   3.86984748189430     -3.66357576555709     -1.41692682616957
  H   3.30561890543235     -4.54656389981862     -0.00901380847381
  H   5.57969801039687     -4.30185058685918      0.15056097162415
  H   6.68095356216676     -2.20679875159957      0.46076702365569
  H   7.00379578229234     -1.73315544373535     -1.86664741524407
  H   5.50315846822948     -2.54362068227873     -2.32869839667394
  H   5.51193296697750      2.00391438673595     -0.17079635999164
  H   3.62784109861155      3.24650724660301     -0.11121457586868
