29
Coordinates from ORCA-job 6353optt
  Br  1.27946317697600      0.18952655089453     -1.01560732301919
  C   2.92583392853564     -0.13902732467198     -0.14852441336938
  C   3.48856200815838     -1.41605429152501     -0.13213072966859
  C   2.97384367684809     -2.76269133610970     -0.52693270486748
  C   4.25025271595662     -3.60491906547026     -0.41181634669221
  N   5.04687784589654     -2.94357120974184      0.62729772849179
  C   6.45434269710250     -3.29769056384862      0.59877140122204
  C   7.21777675169196     -2.90508671523266      1.85996523483379
  C   6.41302930905429     -3.20955234705874      3.10170044648021
  O   7.29249592121005     -3.12240590685383      4.23592083026539
  C   6.71036008420299     -3.06548317048597      5.43946851908101
  N   7.32449396771012     -3.11108705488828      6.53840559585445
  C   4.69407544276699     -1.57132325275809      0.55069686192231
  N   5.41346745903134     -0.64584155847388      1.12660350124922
  O   4.87236057631180      0.65703038490979      0.98243005341739
  C   3.63682125849282      0.95385189022936      0.40642401089974
  O   3.31610263227083      2.12708151666248      0.43601120741166
  H   2.54432723480865     -2.79597851393006     -1.52938721226488
  H   2.20443423079223     -3.12017779001366      0.17125142065104
  H   4.79294678344034     -3.57928239356770     -1.36968890633407
  H   4.06821268529430     -4.64746892620892     -0.14347574041638
  H   6.94923355653779     -2.86004591925579     -0.28240907998084
  H   6.49277471383389     -4.38608141828322      0.48821011766742
  H   7.44888768550111     -1.84198710683701      1.84452074701403
  H   8.15372415201421     -3.46903095184604      1.89268295477821
  H   5.98863205131940     -4.21781986946445      3.06309321695716
  H   5.60213164794364     -2.48631159708475      3.20297742060155
  H   5.62428099864828     -2.96451114676057      5.41782292040428
  H   8.32725480764908     -3.20406091232509      6.36971826741029
