23
Coordinates from ORCA-job 6363optt
  Br  4.00304114694560      1.41391564969002      3.77804683287902
  C   3.97466526226786      0.20929171321750      2.28345358885403
  C   3.32416231682309      0.61797464068684      1.09546507645808
  C   2.38039998632887      1.66398725941790      1.13626065312289
  C   1.44054753623712      1.93883644614350      0.14456586009694
  N   1.48415085374515      1.18424773629650     -0.95275191618971
  C   0.87863824115000      1.19612556333807     -2.08629701695409
  C   1.55503637699985      0.42377918030837     -3.09530318492938
  C   2.86020659935615      0.08910025160936     -2.97303398070739
  S   4.02303036912858      0.59984488763885     -1.73463360780473
  C   3.67485574269653     -0.16082030816145     -0.13286922109520
  C   4.09629769275132     -1.42955401440087     -0.06697974875319
  S   4.33990744692287     -2.35076789488854      1.37747311156425
  C   4.54192864447156     -1.06644873267123      2.59567425438159
  N   5.10100395847788     -1.50177516945728      3.66836882726857
  C   0.48692653644172      3.00338531966384      0.27994472697434
  N   -0.31113069210529      3.83434383775039      0.32404650837534
  H   2.30907220739331      2.23736143099865      2.04793247349075
  H   0.01728001041557      1.82473103238144     -2.33003359955178
  H   1.04361690045997      0.16327457981690     -4.01670822953505
  H   3.34678667015479     -0.43486520238086     -3.78692080653881
  H   4.38815556032851     -1.95180001794250     -0.96818626210199
  H   5.12142063260895     -0.77316818905542      4.37748566069553
