25
Coordinates from ORCA-job 6365optt
  Br  0.80802387512178     -0.04864173726296     -1.21204045004686
  C   3.01636795490678      0.01716753063077      0.18323618873071
  C   3.65156412455966     -1.20631701636922      0.21855612392038
  C   2.83310722493038     -2.48589009216703      0.27757238381148
  C   2.47583188849971     -2.81452319815373      1.66284122091634
  N   2.24317053980488     -3.09950775919376      2.74930933098891
  C   3.64691235851546     -3.63882968340728     -0.34439243367831
  C   5.02096828827832     -3.71367996293014      0.33284118865319
  N   5.71736942990438     -2.47885281978904      0.07936500040051
  C   5.05120665523071     -1.26784740872335      0.16632398577079
  C   5.78317649585885     -0.06287821462617      0.14228662419238
  C   5.10278907691699      1.16155942311096      0.13819190949500
  C   3.72104704781323      1.21037705200021      0.13753865011619
  C   7.20621704003862     -0.11507432615037      0.10842133617507
  C   8.40678997827719     -0.20639146870017      0.08278701139230
  C   2.97559757935734     -4.93513193512981     -0.26418126887728
  N   2.49204492739591     -5.97249906982803     -0.20212347754643
  H   1.90887593961557     -2.30645622179269     -0.28076029676397
  H   3.78802650010094     -3.39645604107433     -1.40024798455364
  H   5.59599816085553     -4.53960506367861     -0.08555190675037
  H   4.86444192241439     -3.91171132892050      1.40127438853250
  H   6.70246768643429     -2.45079924123884      0.29172245612637
  H   5.69104810277010      2.07221247992325      0.12177252206841
  H   3.19861161063892      2.15760171809539      0.08894834753672
  H   9.46734559175986     -0.26282561462446      0.05030914938960
