27
Coordinates from ORCA-job 6366optt
  Br  1.26278560454629      0.21567704165529      0.14416087033723
  C   3.14378370867058      0.24436286427581     -0.09064059439962
  C   3.81495757300143      1.48234826527838     -0.10901653423398
  C   3.29983065377995      2.88623427140264     -0.21026984687901
  C   4.57852794381949      3.69474235509215      0.04789333523274
  N   5.64723833680528      2.83269316840869     -0.47159754019923
  C   6.98195064874403      3.14634352165733     -0.06557236997806
  C   7.22168590868337      3.09675696129259      1.40396344860423
  N   7.40281747661620      3.10957944532319      2.53621802456710
  C   5.19983553104210      1.49507331060966     -0.27654404260668
  C   5.93722474375520      0.34901810579569     -0.32129508866565
  N   5.24616083332283     -0.87657625078554     -0.13719648799454
  C   3.84382716612481     -0.98091039447423     -0.09079792290323
  N   3.24237615464731     -2.14927723312600     -0.01593453513234
  C   4.06451070543817     -3.30825539131290      0.12650577374623
  C   4.77699467272941     -3.73430532963398     -1.11091364964860
  N   5.34576636076416     -4.02724533392541     -2.06529216352117
  H   2.51513325205408      3.11896174819398      0.51101403587293
  H   2.89969446465927      3.10384420989438     -1.21161675670823
  H   4.70536913311157      3.84963763115443      1.12931184307677
  H   4.59919384766850      4.66354773544972     -0.45606337548224
  H   7.24181324803908      4.15509855209890     -0.39363948330286
  H   7.67952086413991      2.45461260404769     -0.54031061192078
  H   7.01284709573026      0.28404399314917     -0.36855692111778
  H   5.70738560678016     -1.66986521049501     -0.55393935345246
  H   3.44058181527180     -4.15708242319253      0.41649697691781
  H   4.84918665005457     -3.20905821783410      0.89563296979140
