30
Coordinates from ORCA-job 6369optt
  Br  3.39455982465688      1.74214493532879     -2.79182454402052
  C   3.80376423995558      2.45939264613508     -1.02911918599441
  C   2.87097100321507      2.28492070887792     -0.00162716826790
  C   1.41849627099374      2.63934180997548     -0.21931253404115
  C   1.25786219448783      4.04115173226623     -0.85867149692202
  N   2.04777701224783      5.11252967395658     -0.23305394049502
  C   2.95350474663692      5.77013770527011     -1.15660713409788
  C   3.84945067193829      6.79996789893445     -0.44771253656810
  N   4.63796593067546      6.30212968471460      0.65696566883616
  C   5.70642458169488      5.29935523856857      0.42074891294782
  C   5.11888773546832      3.92924023299203      0.35099651428595
  C   4.91915778532989      3.24170908924376     -0.86679469947026
  C   4.42286398369765      3.49141595537329      1.52332480778810
  O   4.61533622267200      3.87297782501653      2.68388323358377
  N   3.40457655572947      2.56720349181668      1.27337249637252
  C   4.67658127295738      7.47813972801435     -1.48788500494346
  N   5.33992008884215      8.01163217918906     -2.25782928479860
  H   0.89671893617413      2.60504735275050      0.74150561364051
  H   0.92060509699639      1.92587600079310     -0.88181901895744
  H   0.19532629803636      4.31319725627650     -0.85168401945969
  H   1.55497447626664      3.94798789103881     -1.90813836159608
  H   2.58561482774497      4.76029331741891      0.55027742903660
  H   2.36529823748117      6.32655102090212     -1.89381837448898
  H   3.58085449014637      5.06516021407942     -1.71468164057027
  H   3.18774077958703      7.56730542836035     -0.03687902624311
  H   4.98178861293374      7.07359271262741      1.21178403636489
  H   6.38039706644745      5.40178766292420      1.27415819861806
  H   6.27399689391822      5.52542180651354     -0.49324632236295
  H   5.58719861925082      3.41749444937169     -1.70590080868437
  H   2.87438554381722      2.31889435126979      2.09558819050783
