29
Coordinates from ORCA-job 6371optt
  Br  1.01667978366775     -0.12176097886130      0.26877055752315
  C   2.89274207963533      0.07471637960253     -0.00598403513415
  C   3.67273890036960     -1.10028410302255      0.04032558693935
  C   3.31056415063458     -2.45633143204611      0.27514871345374
  C   4.44273169887557     -3.22648145134810      0.18506991574208
  N   5.51888528575937     -2.40896013696889     -0.12135070058964
  C   6.89909130121753     -2.79233948955969     -0.08444777249592
  C   7.56796160496893     -2.40115002331619      1.24114913669560
  N   6.94228158003610     -2.94163540802314      2.43710626591426
  C   6.97678702371973     -4.39281209586436      2.50470741903993
  C   6.47945074654503     -4.88542429996071      3.79054639366225
  C   6.06288575723670     -5.29035209545857      4.83812070480781
  C   5.08211711648379     -1.09180343603146     -0.19032190305730
  C   5.85149380783188      0.01797896097187     -0.43781321211494
  S   5.12626169810369      1.60307696066631     -0.49689790793214
  C   3.34858775050452      1.38542957577017     -0.23321241519539
  N   2.62233772613276      2.45857468115050     -0.26423412063795
  H   2.31309867471039     -2.81428652966857      0.46809219930164
  H   4.57545157505366     -4.29331168269290      0.26920965343422
  H   7.43477744444773     -2.31280621208357     -0.91111509926442
  H   6.95470004412755     -3.87142250995662     -0.24796509845226
  H   7.54644937959505     -1.31381858723883      1.32709620225032
  H   8.61746458164258     -2.71416403232702      1.22617198722866
  H   5.97991067714991     -2.61837731716802      2.49236153909103
  H   8.01841151492381     -4.70902905535059      2.38914198264296
  H   6.40396505800681     -4.89003692939206      1.70919694359649
  H   5.68800437056167     -5.63835500625736      5.76985351577036
  H   6.91469340198618     -0.00913841617014     -0.62721051825954
  H   3.19247526607166      3.27930467060540     -0.44851593396022
