23
Coordinates from ORCA-job 6376optt
  Br  1.67986996054207     -1.43704228146544     -0.06055330153411
  C   2.76523475233749      0.08090593210170     -0.40822080191341
  C   2.50078032013269      1.33470581624709      0.11446159115003
  C   1.46748217667327      1.83626440013295      0.91324388796615
  C   0.17548846897693      1.36713448622259      1.14175289550148
  N   -0.84534151908520      2.15151758692359      1.48778230685108
  C   -0.90966836432765      3.45838368362146      1.27229186343321
  C   -0.23036498106133      4.33937134957196      0.34971032244513
  N   -0.55350683865408      5.59651411935019      0.35383638240245
  C   0.75296666884500      3.85371384082646     -0.68575525094663
  N   0.49890174998339      3.21341993294961     -1.73569667316358
  O   2.00821432907080      4.30947478395121     -0.39623952883369
  C   3.13392882924033      3.60604571081920     -0.78012936481374
  C   3.41388700275509      2.33311559621504     -0.47490801844564
  O   4.65925054744838      1.88401316922628     -0.81827059200771
  N   4.71201319933222      0.59993783091627     -1.51007226259278
  N   3.78679053119243     -0.17761211876099     -1.25675322811459
  H   1.63507301110151      2.84591482752951      1.26298236895043
  H   -0.06360119315606      0.31436938851537      1.05758401890546
  H   -1.69744255300804      3.98498339007570      1.80529510808510
  H   -0.02630425623223      6.09799279505890     -0.35970676673861
  H   -0.48920858036105      2.97109274466132     -1.75578353364275
  H   3.87655673825404      4.21478301531000     -1.27585142294327
