22
Coordinates from ORCA-job 6377optt
  Br  3.07004048075334      1.73617259803383      2.11591120820309
  C   4.34735374267276      1.00621809867732      0.93888030695040
  C   5.55840575343646      1.52716018832755      0.62254865798069
  C   6.22768302905972      0.83666925292938     -0.47924105892783
  C   7.29093809955430      1.37416707236957     -1.25463366180259
  N   7.90470378248775      2.53495041722032     -1.25886029182165
  C   7.80059681222478      3.50894405279299     -0.34788037932668
  C   7.12541186577714      3.54961775773448      0.85610345708009
  N   7.33836645565096      4.61290570388998      1.76197567586298
  C   8.21655367938792      5.63360725726056      1.75529485656918
  O   9.02365531667828      5.92476312855748      0.89517808494668
  C   6.15455504295599      2.62467382557650      1.41714197057856
  O   5.77691756825317      2.80201306471708      2.58227144587282
  N   5.82124853571589     -0.37082585005319     -0.86982624252241
  C   4.71354786549188     -0.92864559762113     -0.34217793548590
  N   4.29469776289094     -2.12249624369591     -0.45465821768913
  O   3.84014086913919     -0.09057177678424      0.37426717987486
  H   7.59500820263023      0.68846043476030     -2.04127917818373
  H   8.40716507512941      4.37806885316362     -0.56485189427045
  H   6.77363037716921      4.49139637940568      2.59548708402468
  H   8.12272668751188      6.23223214843055      2.67813028672248
  H   4.97065299542840     -2.62248076569285     -1.02578135463616
