24
Coordinates from ORCA-job 6378optt
  Br  2.05497768652851     -1.71853547513815      0.98553556440839
  C   2.99212299584009     -0.27005147759997      0.21599367547233
  C   2.64811232934300      1.01474845950642      0.33420270191564
  C   1.49609431575430      1.67423321437390      0.90111187116953
  C   0.27572779002451      1.57323581526878      0.34079610166751
  N   -0.63986840740679      2.57673428311824      0.35779581159371
  C   -0.18787295652331      3.81754551468843      0.27679915583125
  C   1.03826490872661      4.44576583241392     -0.12393746608407
  N   0.80163880864544      5.88148448137422     -0.22181225835248
  C   1.70682586839198      6.83772374111687     -0.49533732177369
  O   1.43577626424034      8.02890427118130     -0.57219716309845
  N   2.25629772007891      4.14117845618949     -0.50375023420706
  C   3.28114469199358      3.30376442025771     -0.58538251211393
  C   3.54724963855714      1.96451496214424     -0.29587756941046
  N   4.86005743986122      1.54852825968418     -0.53933126596102
  N   5.17335791673958      0.35192400222098     -0.59355947305832
  N   4.12659239378028     -0.61047846699409     -0.53364516379051
  H   1.71555746482444      2.57440557913046      1.46258109769064
  H   -0.00828245295960      0.66821364333960     -0.19495105810764
  H   -0.97932194243202      4.55090332175627      0.42457109997926
  H   -0.13396752447925      6.22481969830403     -0.07080772725302
  H   2.71570731817115      6.43983716718646     -0.64479681808655
  H   4.17559534530409      3.77161615910595     -1.00456896799690
  H   4.53521238699576     -1.50401586262928     -0.30243208043415
