21
Coordinates from ORCA-job 6380optt
  Br  1.08073507887413      1.26334610601548      1.68906668047837
  C   2.87106310831355      0.51495263524379      0.26474433679390
  C   3.26527440999894     -0.79361704433183      0.26482054051602
  C   2.71569679682075     -2.21050709927517      0.17668472407037
  C   1.52829693181551     -2.40638989177358     -0.65239879842503
  N   0.62221446158548     -2.60773855063334     -1.32411558399020
  C   3.95467561047974     -3.03367453893886     -0.44723617814297
  C   4.06829611750494     -4.37732776849115      0.12423922211504
  N   4.12527086227205     -5.43208171801115      0.56585610233821
  N   5.09504693929829     -2.16627582562995     -0.15202310686094
  N   6.38040918719332     -2.04900579610882     -0.65375844710757
  N   6.69904395938289     -0.80516071758846     -0.57665056142370
  C   5.63890988537694     -0.06484050108063     -0.10062735710997
  C   4.63122674145172     -0.94702445749483      0.12171327070660
  C   5.25902897597466      1.33806941847373     -0.03961453083222
  N   5.95050900747774      2.40190885716818     -0.18270389669419
  N   3.86098310385533      1.46219519525382      0.18231292561568
  H   2.50008655805916     -2.62262917147670      1.16708440623211
  H   3.82554376300790     -3.12556429409178     -1.52858212515974
  H   6.92507211661965      2.15547658581422     -0.32952749072365
  H   3.55861638463721      2.42588857695704      0.23771586760386
