25
Coordinates from ORCA-job 6383optt
  Br  1.62403581084172     -1.85332694092186      0.99163185532405
  C   2.45670575345337     -0.41593242738795      0.04765649477905
  C   2.30128224232972      0.89779137609625      0.40364476686190
  C   1.23292894621699      1.50985945225265      1.21759497506251
  C   -0.04102905705442      1.75777069528831      0.88577900223061
  N   -0.37675432912908      3.08490806228279      1.24093017193416
  C   -0.59575515428623      3.84683650475566      0.24676904248086
  C   0.12187001800118      5.18117233011218      0.17338728316878
  N   -0.50638128543151      6.29484056008343      0.22674366399804
  N   1.49427807943218      5.01647481831032      0.05737390993970
  C   1.92842008916372      3.79882935317092     -0.25037571553705
  C   3.19333476476569      3.21600875799208     -0.10981514549025
  C   3.29337895175605      1.81298863935887     -0.04228369184685
  O   4.57005310634923      1.28421515065012     -0.33482439104587
  C   4.72471689241357      0.00305736364455     -0.71382569761672
  N   5.83470831312453     -0.47778749268710     -1.10194747827601
  N   3.58496910192938     -0.76726613055479     -0.69721175709117
  H   1.62693159652944      2.20912332600764      1.94881964312867
  H   -0.56884120201365      1.24801187037395      0.07895543578219
  H   -0.92586585973410      3.43865425079902     -0.72223867854097
  H   0.18433267355275      7.04175466222167      0.13208229382894
  H   1.22732195939229      3.08432271007100     -0.66728771886605
  H   4.08655588700812      3.81207583113208      0.04044931548782
  H   6.53303145249296      0.25861275288277     -1.11519435003631
  H   3.71477124889599     -1.71899547593468     -0.99581322966002
