28
Coordinates from ORCA-job 6388optt
  Br  2.12508555505263      5.19657914632734      1.93594115625870
  C   0.52430003771241      4.38222237852896      2.70313779096359
  C   -0.21425929995223      3.47689656439484      1.96899913464826
  C   -1.47719825081537      3.08410365939335      2.57724836696479
  C   -2.23528115031861      1.91888888743662      2.05211710670403
  N   -2.19767434285450      1.84077339608649      0.58227863002197
  C   -0.80041039648925      1.83035800484038      0.17115627759242
  C   -0.82752923412312      1.38488398771224     -1.27444889057687
  O   -0.53304219190220      2.01792333266879     -2.25743357988782
  C   0.04591383760831      3.07882264005795      0.51776769203705
  C   -0.19743131071694      4.28416257899221     -0.44972639631822
  N   1.02224112883028      4.32029813760766     -1.26667900282813
  C   1.81893412868396      3.28881364661522     -0.79381668671765
  N   1.42724501478623      2.63216292650523      0.21431308661564
  C   -1.77238056474343      3.61701617743076      3.85154455304179
  C   -0.91242854733343      4.47941832651123      4.46448017032280
  N   0.27609156120555      4.88306391249569      3.90351568983971
  H   -3.27302046523921      1.94620250629951      2.39256901820247
  H   -1.81575325859364      0.95119920156977      2.39052271596342
  H   -2.63035789048692      2.68794718953026      0.21712079246209
  H   -0.32958050286641      0.99885716408596      0.71417803196636
  H   -1.23767425862906      0.36106527310950     -1.37920136735114
  H   -0.29186145314839      5.20838984063974      0.11884191048834
  H   -1.08142095316673      4.15452973754114     -1.07470928623597
  H   0.88078017808080      4.30752349133935     -2.26691295633195
  H   2.77295340735458      3.10715428250972     -1.27876130495563
  H   -2.69809282641252      3.33857812344864      4.34750257904117
  H   -1.14514795152279      4.91216548632139      5.43145476806876
