27
Coordinates from ORCA-job 6389optt
  Br  0.99259839811011      1.83481302139772      0.25821620707514
  C   2.65246157859143      0.84935231913158      0.11289139845071
  C   2.64704311575970     -0.50901655082161     -0.17461277082360
  C   1.42009172625114     -1.19543992378424     -0.71649682162981
  C   0.93353781589622     -2.45340607841686     -0.00388079817313
  N   1.74233072488328     -3.60805941418061     -0.35077071841216
  C   3.05330846470645     -3.61174902248190      0.29096847638680
  C   4.11566610560892     -2.62922905901268     -0.19046623652577
  O   5.26647397642945     -3.12936288271216     -0.37268033623043
  C   3.91402592246822     -1.21594197879875     -0.16871307054462
  C   5.05889944148495     -0.38292576823977     -0.08335330860490
  N   6.40323627208140     -0.73061853497983     -0.11508401215118
  C   7.20340009424584      0.36027616157277      0.08093402662903
  O   8.42437671337282      0.42768224632152      0.10384289190339
  N   6.31679930926411      1.41313674245996      0.25029582432871
  C   4.99902515371744      0.97545145609671      0.14987626349846
  C   3.78409018511140      1.64546835583778      0.30625632243901
  H   0.59619604059354     -0.48726316546992     -0.75098789657876
  H   1.63632024320827     -1.49520932233652     -1.74913473542878
  H   -0.09019940554121     -2.65784777957058     -0.32792999371133
  H   0.91209035299820     -2.27008627532932      1.08360122982975
  H   1.25608579364689     -4.44934982080286     -0.06566867070604
  H   2.94618154294433     -3.44879070783727      1.38083019600494
  H   3.50039711425124     -4.59397213215357      0.14525218700144
  H   6.68471578216800     -1.69148174353008     -0.25778053782561
  H   6.63474835477775      2.35276483261607      0.39721848144156
  H   3.71209918297006      2.69180502502444      0.55737640235717
