22
Coordinates from ORCA-job 6391optt
  Br  1.02988180606408     -0.52308407847277     -0.04908969031922
  C   2.89908148560743     -0.24030945325774      0.07327340329769
  C   3.57466561503208      0.54828610823247     -0.83519714479120
  C   2.92277093637359      1.36229983724185     -1.79374432741129
  C   3.63666389754267      2.27121282878100     -2.53791444191295
  N   4.95650669583519      2.44800530490644     -2.42955929352792
  C   5.63692015000851      1.64955202956013     -1.60442649667786
  C   7.07670774686009      1.91598304862828     -1.62873734270361
  O   7.95375764547435      1.33083861584364     -1.02581385652909
  C   5.04353851398060      0.60551607816928     -0.81436165849305
  C   5.79320659507200     -0.29713254446414     -0.09056620502573
  S   5.04999752065545     -1.66594572546194      0.58599279739762
  O   4.73318148543081     -2.66760769092384     -0.38875604324788
  O   5.70504158397408     -2.09034770599577      1.79361734086086
  N   3.56201631452163     -0.97638248736497      1.06031147053631
  C   3.21437998871888     -0.93623749034623      2.40319932240018
  O   2.28675347915611     -0.30813373300184      2.84282439812694
  H   1.84975609502957      1.30299051452463     -1.90161985605108
  H   3.12297326595876      2.91274889497451     -3.24586939418657
  H   7.31884492646352      2.75996871466312     -2.30112223722989
  H   6.86795816110066     -0.27435262717727     -0.02249943810000
  H   3.87639609113992     -1.56086843905884      3.01105869358775
