27
Coordinates from ORCA-job 6393optt
  Br  5.25833535835218      0.84991500720665      2.30583905608119
  C   4.10692063581904      0.44781560970886      0.75786608486620
  C   3.02120147430770      1.23696716574377      0.54980553131244
  C   2.62828627983297      2.40968692891401      1.50120036684195
  C   1.52931334693158      2.92092604914215      0.59414668181966
  N   0.42176607405395      3.89311830965272      0.43580881598401
  C   -0.14020832756928      3.42799136036074     -0.60360354810386
  C   0.16816770802251      2.08823385413136     -1.36960122979054
  O   1.49594006859753      1.61833734457602     -1.54657365034115
  C   2.14209498530009      0.75092936607198     -0.56952294096089
  N   2.48502765519226     -0.41969084547447     -1.18472215084816
  C   3.57008873321271     -1.03774137534462     -0.81683209370315
  N   4.47785914172583     -0.65734813566091      0.10987576314304
  O   -1.20893357196981      4.04667790978787     -1.18257319140917
  C   -1.66800249819588      5.17177371719383     -0.49063695520929
  C   -2.42968619405631      4.83325395714145      0.77000470421554
  O   -2.82957409964748      3.74552254755908      1.06102829267460
  H   3.47508592348090      3.07809555321255      1.65493615078297
  H   2.29885724192666      2.03248523561212      2.47326533000215
  H   0.98972035213275      1.98623082817461      0.53972761062875
  H   2.10399348781091      3.08441114964909     -0.30403630374805
  H   -0.24215534160473      2.21733317561664     -2.37103355091661
  H   -0.43443353159674      1.32853504000583     -0.85269184822169
  H   3.78891876661734     -1.97902186122051     -1.31689031217277
  H   -2.35575541616681      5.70282378162482     -1.15599985659738
  H   -0.84430075986953      5.83965133125389     -0.22386705453179
  H   -2.63952749264036      5.71208699536042      1.41508029820199
