30
Coordinates from ORCA-job 6394optt
  Br  0.44536553373770      0.11045256326893      0.46384403869822
  C   2.90646557593308      0.29384751262739     -0.49130513411880
  C   3.50121343270532     -0.94042165256954     -0.74068553470096
  C   2.70615087781979     -2.16415634404539     -1.10976299155305
  C   2.43285564974294     -3.09716473070204      0.07941703729010
  N   3.55349167817439     -3.89389210723970      0.58106099136237
  C   4.61308977404836     -3.18602185553138      1.28147331386146
  C   5.84278239678711     -2.86296803120421      0.43751395828115
  O   5.52929873912538     -2.17929887320032     -0.76574746009441
  C   4.87349754240665     -0.98872900133333     -0.55903629497720
  N   5.63398530732720      0.03629747443412     -0.17792269837434
  C   5.02152248052591      1.18466123123501      0.03214607646270
  O   5.78699651363004      2.25880238177217      0.40464665157669
  C   7.16648628594641      2.03280842087089      0.53244800421987
  C   7.80513488346654      3.35506505366312      0.86286266457135
  O   8.97771298244765      3.48507921501111      1.08510832872769
  C   3.65010915791853      1.38199910709581     -0.09940453471099
  H   3.21995428679129     -2.72731019020897     -1.89467585605781
  H   1.74233208031131     -1.82475018555939     -1.49032036967721
  H   1.64621205527368     -3.79900277399898     -0.20864150921364
  H   2.03098532037488     -2.50012824668880      0.90053127534299
  H   3.94604337588967     -4.44522388832386     -0.17366979838375
  H   4.96818130533007     -3.78246470627393      2.13144045080837
  H   4.19671459274382     -2.26568062529152      1.69753406323178
  H   6.33248756211549     -3.78660269862681      0.12032532302929
  H   6.55581787155271     -2.27630300577122      1.02822465852314
  H   7.60058355735163      1.63928549135321     -0.39228760604319
  H   7.39118440354275      1.30724112480785      1.32017387974327
  H   7.11347041142206      4.21875980289197      0.88218031869089
  H   3.21087436555748      2.34681953753785      0.11852875348402
