23
Coordinates from ORCA-job 6398optt
  Br  1.36694352909628      0.13034900205828     -1.33890915919180
  C   3.03339493950868     -0.09415823375286     -0.51255839780024
  C   3.68805927436713     -1.26644770968775     -0.45885305150584
  C   3.51236517287622     -2.62514039031558     -0.87953962111395
  C   4.63723564650178     -3.28947002368909     -0.46535986582811
  N   5.02825293954753     -4.54014401567221     -0.55402316263594
  C   4.27620673464104     -5.56916685310532     -1.22933969515848
  C   5.12571661452255     -6.84781559732037     -1.12228366424154
  O   6.29951373872339     -6.72947851332009     -0.63596839567422
  C   4.52208096076492     -8.00429500193364     -1.58948827472143
  C   3.97340754926404     -8.96110373887432     -2.15081160755403
  O   5.52557309729024     -2.43940499059569      0.18841307661419
  C   4.96816001731279     -1.21552315849179      0.20155331955111
  C   5.50757119518434     -0.10325303962733      0.73796915449213
  C   4.76004199375341      1.12518568193357      0.65472234157327
  O   5.08648756384326      2.20439201029586      1.07364178327472
  O   3.52348654168558      1.04308087277011      0.01461820709492
  H   2.68080218219393     -3.05696334914217     -1.40485787360272
  H   5.94312011596027     -4.88960860326592     -0.25116826025931
  H   4.11026208535125     -5.29079458540147     -2.27904188748217
  H   3.29368121689500     -5.69798737578908     -0.76328429084916
  H   3.35771244512649     -9.83316220069885     -2.05800360282605
  H   6.46892444558959     -0.08109018637409      1.22557292784467
