21
Coordinates from ORCA-job 6401optt
  Br  0.98588934622596      0.17420909579647     -0.27682110306242
  C   2.87106200322599      0.07470609140141     -0.21324617299115
  C   3.57524852241030     -1.05223176780092     -0.03712637558607
  C   2.95187488450443     -2.35487011720469      0.11637801929886
  C   3.72388768916302     -3.44804647296370      0.17128145768038
  N   5.08066138339762     -3.37799339558712      0.08556245072122
  C   5.77839004152860     -2.16955963525603      0.01629073453523
  C   7.20378906238809     -2.30661809439007     -0.14041118377758
  O   8.04180937972363     -1.41220884789245     -0.37886093852856
  C   7.69578602617064     -3.68593366140289     -0.04175835816236
  N   8.06075850686217     -4.77752250922589      0.02476901698098
  C   5.04013170815653     -0.97604949611791      0.04040842027133
  C   5.60213001765540      0.35317040776989      0.27614813822955
  N   6.70781493703314      0.70204379587824      0.80998533785052
  C   4.74475582855724      1.54043153876307     -0.12885609286883
  O   5.14410581748684      2.65470581372126     -0.26632649242175
  O   3.41826954129268      1.31230836758885     -0.37461844393978
  H   1.87963032837724     -2.44235714400015      0.18888460057755
  H   3.31494832712683     -4.44324046200361      0.28065944835793
  H   5.61179898251445     -4.23269917726176      0.05941995965600
  H   7.28925766619914     -0.10924432981196      1.00423757717895
