26
Coordinates from ORCA-job 6403optt
  Br  1.45106479469196     -0.40294933664972     -1.52192909053207
  C   3.08217838961486     -0.15698347068574     -0.60381191613155
  C   3.88241527641256     -1.26803141973359     -0.24427750867310
  C   3.69531465338999     -2.66477947236112     -0.45785123847377
  C   4.71353149370999     -3.43384634004104      0.02532653730704
  N   4.83104081369255     -4.83633982877442      0.05474445389801
  C   3.94609125296924     -5.56689736885980     -0.82547444861892
  C   4.22551842306059     -5.35972129543333     -2.30419320851525
  O   5.48470609665576     -5.97542588202127     -2.59535409288245
  C   6.19123469802853     -5.48198677513156     -3.62778458100876
  N   7.20576863051041     -6.03353442394838     -4.12355811700990
  S   5.96087672445859     -2.47585946831040      0.78261860495902
  C   5.09441378103450     -0.99029715297542      0.41713784666913
  N   5.57677563091679      0.18860185567506      0.73834150330822
  N   4.74447469207587      1.20974244003625      0.35393836532821
  C   3.51498761711053      1.15819951807102     -0.31862014921498
  O   2.95734314321212      2.22921054307675     -0.58108785212342
  H   2.82015594427669     -3.05633176813847     -0.95762505289876
  H   5.79101904047586     -5.13977997359854     -0.05433977492755
  H   2.91744604566395     -5.26983269665452     -0.61294120250353
  H   4.03488386615557     -6.63144101123244     -0.59967737493150
  H   4.26981738052446     -4.29355462867851     -2.53623996207469
  H   3.45224970214757     -5.83335010636028     -2.91567102074069
  H   5.82680231360998     -4.53047434597720     -4.01629844406742
  H   7.40114537995481     -6.91123624710035     -3.64034468757568
  H   5.07474421564615      2.13589865580707      0.56397241143437
