26
Coordinates from ORCA-job 6405optt
  Br  1.25780014580052      0.49167847168853     -0.67337720164250
  C   3.13585014004194      0.23589420386165     -0.40509824277974
  C   3.64086538140446     -0.95649879444914      0.01673655872566
  C   2.78731695302202     -2.15544367138370      0.30909236859062
  C   3.58827753062496     -3.43011668639630      0.13547275783179
  N   4.78465363890140     -3.36639606627231      0.94343340407425
  C   5.43188658544155     -4.60965313405307      1.19325486378077
  C   4.73171418013417     -5.51291394795242      2.16546141538997
  O   3.71651265738395     -5.27901821490949      2.76139746426980
  C   5.64771141498555     -2.24140241375761      0.77456538607962
  O   6.82873912332177     -2.35631621068840      1.12692895478876
  C   5.05775173228492     -1.05776495635761      0.22645881813747
  C   5.83743547710869      0.13306952858467     -0.07400650437923
  N   5.27645752657507      1.27233116738833     -0.48295369552916
  C   3.96835397564032      1.35702300003892     -0.64386330106435
  C   7.26258430169999      0.17895063702391      0.00794335078549
  C   8.46116350238242      0.29457539331206      0.03164946568773
  H   1.91032678165443     -2.16808141427403     -0.33812315681824
  H   2.43279335965017     -2.10584600124189      1.34380967626767
  H   3.84222116761024     -3.56791722252498     -0.92868431061661
  H   2.99456286478757     -4.28710104217501      0.45699908870067
  H   6.43146864126801     -4.39960358081869      1.58949258996096
  H   5.59697740624140     -5.21142151762030      0.27794593155115
  H   5.24498763335612     -6.48998461053489      2.30441631757579
  H   3.55024820486593      2.29991482383202     -0.97250480752410
  H   9.51933967381234      0.36204225967982      0.08255280815575
