26
Coordinates from ORCA-job 6407optt
  Br  1.09254923819809      0.02992196006507      0.81620838296125
  C   2.90929546434393      0.12770590290136      0.24936973354506
  C   3.66855467394016     -1.06426803401163      0.19683274014799
  C   3.33393331960369     -2.40911249132938      0.47445258756032
  C   4.47431854817575     -3.19035633811721      0.26688575003447
  N   4.64521653748592     -4.58521217549287      0.46932499148696
  C   4.98183432699817     -5.35895122984764     -0.71846629459657
  C   3.85063703632291     -5.42297261409104     -1.71583834159228
  O   3.60642281568931     -6.38261201153610     -2.40303795373169
  C   5.51680661651496     -2.33793081271427     -0.14551933093771
  O   6.81193483744283     -2.75458129883359     -0.45303350921526
  C   7.51445465573622     -3.29541175267978      0.56355606440805
  N   8.63927879200271     -3.84608584561194      0.42789677616060
  C   5.04423710637021     -1.03541692682756     -0.20207284328851
  S   5.93880743075896      0.38239367336619     -0.66033912110815
  C   4.71439896754966      1.60119972768721     -0.49483535553388
  C   3.42075937638915      1.37646705230989     -0.08715280105357
  H   2.36539766797499     -2.76243390788153      0.79655410822723
  H   3.85041018679355     -4.97769942389703      0.95575399589908
  H   5.27083315442712     -6.37677571391360     -0.45036802780024
  H   5.84225181277977     -4.88681584344426     -1.20230364838057
  H   3.21919805788114     -4.51451956367832     -1.75068309308388
  H   7.02261449926154     -3.21721987615962      1.53147216051171
  H   8.91678065365598     -3.82165448488238     -0.55456150719436
  H   5.05560386136141      2.59466864603014     -0.74573438924867
  H   2.76347036234177      2.23567338258996     -0.02736107417738
