22
Coordinates from ORCA-job 6410optt
  Br  1.19656212600099     -1.52795773470342     -0.67240533883460
  C   2.84444043856011     -0.67019383016911     -0.36966118613675
  C   2.98122400817533      0.66120948952345     -0.34831061036374
  C   2.05167772370879      1.78599213049969     -0.50892541050420
  C   2.01597410075143      2.60605972035093      0.55355674607513
  N   2.03677187061257      3.97480224690382      0.46542223246809
  C   3.19309863227602      4.40907793946266     -0.01227361369073
  C   4.46288251094668      3.80354687518611     -0.28825773516258
  O   5.41899023474537      4.48340242710004     -0.70218110462244
  N   4.86776334249719      2.37324642386462     -0.01184089123497
  C   6.19988205905461      2.15588488349509      0.25403918293793
  N   6.53328950201781      0.89427344216093      0.35524051695153
  C   5.36312205697231      0.22871009514438      0.12366235739772
  C   4.33028298372082      1.10293643919860     -0.09795494774555
  C   5.15018768193123     -1.19861543607579      0.09729588359140
  N   5.96211602656141     -2.14935027042702      0.27674819175941
  O   3.83551986366390     -1.56437945138394     -0.17643244793434
  H   1.95146564713981      2.21869934908774     -1.50013800359857
  H   2.12414982788642      2.17356999663997      1.55291755836096
  H   3.26560553527485      5.47500476440888     -0.21071005115532
  H   6.86808039071678      2.99415592050731      0.34261101652844
  H   6.87691343678554     -1.74207542077497      0.46159765491318
