28
Coordinates from ORCA-job 6413optt
  Br  1.29408709762500      0.51596708628893      3.13443783303939
  C   2.51184160058901      0.49888078420512      1.69782061520000
  C   3.23782499403358      1.57192041884162      1.35154498170597
  C   2.99688639055146      2.99312564916306      1.70323324981195
  C   2.16402725417521      3.61103037777155      0.52843797741726
  N   0.78622102661907      3.22231496976829      0.43077789653343
  C   0.34017076935366      2.03599584854027     -0.21816176045555
  C   -0.95132989320237      1.59119887186954      0.22370335643225
  O   -1.69228375901369      0.74912821088726     -0.35394426481650
  N   1.11550675197747      1.53752064068208     -1.14973329470365
  C   0.84455486637756      0.19813351643116     -1.61317931553318
  C   2.19317176358132     -0.58716680499169     -1.78085850065470
  C   2.98083721059473     -0.21647373976370     -0.56854449872234
  N   3.86814464755900      0.68263959269188     -0.74333611360089
  O   4.18199248281537      1.45982022724174      0.37788419444588
  C   2.49657207410676     -0.62827669892267      0.78224201747400
  N   2.03648300146647     -1.77840615554509      1.07224388409421
  H   3.94627214663341      3.52818590005378      1.77845096040793
  H   2.45370176760843      3.08234705347360      2.64234969712706
  H   2.64798948070204      3.34930508485634     -0.41288692692126
  H   2.21604912636415      4.69756892906431      0.64564465381770
  H   0.20713193040605      3.47557504774865      1.21629522262259
  H   -1.30982313634416      2.08807615657440      1.14774959840490
  H   0.33631699363372      0.18611779780346     -2.58508328055356
  H   0.20937505559376     -0.36697804703303     -0.92626268122074
  H   1.99363794712068     -1.65617631671631     -1.87520448449672
  H   2.73676070444682     -0.23698862668354     -2.65788906466416
  H   2.02587970462546     -2.37438577430104      0.24526804780873
