21
Coordinates from ORCA-job 6415optt
  Br  3.63297576368274      1.68520912319402      3.83922808300389
  C   3.97744147338873      0.62850018263390      2.28874496315269
  C   3.33921435541946      0.96898172870203      1.02179017371447
  C   2.32554181529942      1.97219814443737      0.86867830493402
  C   1.44975782248511      2.27481904785486     -0.19850802227378
  N   1.16226147548802      1.68422443031943     -1.34919782723572
  C   1.83417261746992      0.45756798450119     -1.42234267124654
  C   2.10515774188146     -0.37470431661124     -2.67468984995316
  O   1.54379963443198     -0.82666445641661     -3.61129300915959
  O   3.45077490798958     -0.55390186504840     -2.36584671512973
  C   3.38189637596931      0.46801204158670     -1.34323381434057
  C   3.86294900634554      0.18692553031266      0.01401829197474
  N   4.68045876395273     -0.85631816766781      0.27761574977869
  N   5.16358521922015     -1.19386719623002      1.53515413159441
  N   4.78122304760336     -0.36613219385989      2.47804471407188
  C   0.69210345468657      3.50344973654233      0.02049980317044
  N   0.09663734745399      4.46678514536141      0.20997778563289
  H   2.22236533351922      2.63219438587372      1.71765999314878
  H   1.48421877443721     -0.25962099676855     -0.66139452054233
  H   3.77235073160391      1.41407401435067     -1.72063476460943
  H   5.01911433767153     -1.43873230306780     -0.47027079968607
