22
Coordinates from ORCA-job 6420optt
  Br  3.16504557427748     -0.80513539439114     -2.91287806656511
  C   3.89190892460354     -0.12155298650985     -1.27681953227180
  C   4.38457014330062      1.17677970596614     -1.18595353140063
  C   4.91105769372511      1.57597838198102      0.11756663066724
  C   5.23597372023494      0.48115238791187      1.05807689141022
  N   6.08760053598144      0.53469169653954      2.05296675410151
  C   4.55049436908767     -0.74054804053546      0.80605365557865
  N   3.90962776632538     -1.03119669200773     -0.31428192155139
  C   5.02020989685419      2.87304200098533      0.51305057804668
  C   5.12137587808199      3.40254579264563      1.91058764605146
  C   6.37490288047363      4.11593515099282      2.18572076850947
  N   7.35009856136205      4.68398627752996      2.39030810730135
  O   4.78319467796745      3.92398970545422     -0.38119400153651
  C   5.62815084911788      3.82605832166569     -1.46688376706961
  N   5.45720229899211      3.01128517684304     -2.39551856640442
  C   4.33155856577652      2.13069997655489     -2.30609713571615
  O   3.49103804445605      2.18131702723785     -3.16941299717678
  H   6.62050308851229      1.40108881649033      2.02222759957036
  H   4.63148193504835     -1.51951385377022      1.55655207521701
  H   5.00105541409690      2.60478058420446      2.64209682083756
  H   4.31093044821480      4.12604342419002      2.04978556393698
  H   6.46401873350933      4.52157254002151     -1.43995357153606
