28
Coordinates from ORCA-job 6423optt
  Br  0.44192492726094     -0.02284319633864     -0.14612506254646
  C   1.60032547208848      1.55425608828913     -0.39107734459019
  C   2.60775748830077      1.77853037657315      0.55929439624298
  C   2.23521251165035      1.83928915272150      2.01808647888839
  C   1.76927106469648      3.26230415493426      2.45250138995392
  N   1.04420278464596      3.98713581662222      1.41225150956846
  C   0.00780493431231      3.44364915255691      0.94450905031974
  N   -0.64653991795453      3.88856739940805     -0.20507098372189
  C   -1.04666730149955      2.80426290985713     -1.13860083876576
  C   0.22179201489863      3.04505507934360     -1.99194147293792
  C   0.24407181535429      4.42671627243574     -1.26359195349800
  C   1.49378474467644      2.28102449470071     -1.63149927194371
  C   2.62979888336942      2.68496622145453     -2.23831673491892
  S   4.20228605569178      2.24824150927767     -1.61146707366617
  C   3.87708274545043      2.26978048216652      0.18375625638218
  N   4.80001059928024      2.67002348377253      1.00494992905310
  H   3.09160685772265      1.56955094458531      2.63987044026932
  H   1.43416090496365      1.12203225951636      2.20885470146672
  H   2.65571127601699      3.84827734633630      2.69167500026716
  H   1.16949891694905      3.17346179839422      3.36899911246369
  H   -0.46982717863387      2.55375915170453      1.37792275460759
  H   -1.20348460679526      1.83657932023368     -0.67465661707078
  H   -1.94510824030563      3.10414212825139     -1.68277986761576
  H   0.07148075398388      3.08612077173679     -3.07199962765253
  H   1.20541565043608      4.76812424299347     -0.88682266663659
  H   -0.26577539680321      5.21433177641674     -1.82273280420422
  H   2.61800903270319      3.44413373923391     -3.01483740584746
  H   5.60419320753991      3.02852712282207      0.49784870613310
