29
Coordinates from ORCA-job 6426optt
  Br  0.99731563339622     -0.11200833619811     -0.69245440530261
  C   2.86323357902260     -0.23948821344697     -0.16055541778098
  C   3.61015765769949     -1.44750975469380     -0.31830384738764
  C   4.99637612468275     -1.28080954015042     -0.09567754091775
  C   5.65370964472545     -2.61998573147260     -0.18904061886828
  N   4.52890035745110     -3.55378681894276     -0.03661144412013
  C   4.79726233576082     -4.88907435899289     -0.00309966407212
  N   4.04240247834570     -5.91338011073189      0.03804259990317
  C   3.20411697433383     -2.89478620248729     -0.12750354028247
  C   2.38399468526507     -3.03751774350578      1.17270904124706
  O   1.58180770442049     -4.21379370491580      1.23981018920866
  C   0.77191375839010     -4.30588543606641      0.10897069629191
  O   1.53085241428762     -4.52046590275902     -1.04174100319060
  C   2.36185681992912     -3.39370638506383     -1.32434720818760
  C   5.55526087573386     -0.07859180047158      0.22117021961211
  N   4.82352756544906      1.08373046538928      0.32613461048045
  C   3.50849980763493      0.94852949581743      0.09927210109027
  H   6.39958438876707     -2.77844978654630      0.59443210161911
  H   6.14302027392198     -2.76091633930592     -1.16154619810379
  H   5.87707322628076     -5.06433215812159     -0.00584394542080
  H   3.05841602834784     -5.65576565628319      0.03199354517712
  H   1.72682016917365     -2.16504794484413      1.25791991378748
  H   3.06057819644807     -3.05725974595455      2.02506178633122
  H   0.18033483083513     -3.38187962725572      0.00049010751179
  H   0.12392853986448     -5.17064494499150      0.23751839515135
  H   1.72909302560762     -2.56953725455393     -1.66095048860345
  H   3.02901868260246     -3.68502643526907     -2.13428695437744
  H   6.62323839421313      0.00871237342530      0.39652417981966
  H   2.92070582740948      1.86267759839311      0.12191278938430
