26
Coordinates from ORCA-job 6434optt
  Br  1.05443865735706      0.13473665776375      0.03582214233765
  C   2.96985689947745     -0.00015125956486      0.08434814221703
  C   3.57332458616291     -1.22778072833051      0.18263510778728
  C   2.81840837261514     -2.52190892435228      0.27659064325327
  C   3.67513459309192     -3.63622446045343     -0.32899253445467
  N   4.93853817145596     -3.70612505525724      0.38470948832638
  C   5.72347712799617     -2.51004236349356      0.34073861813421
  N   7.02547236668649     -2.56103508166559      0.43036973403207
  C   5.00898085072672     -1.28356491238254      0.22256337219794
  C   5.73560393812160     -0.04856017368533      0.19733087269689
  C   5.06032514870555      1.13293760912710      0.09502798434993
  O   5.74206965501569      2.35394700132153      0.09129854541088
  C   6.84234348781465      2.45867172566188     -0.67446322922728
  N   7.66013955216551      3.41436842758886     -0.60578033544318
  C   3.66364217218958      1.22019868010099      0.02787664945863
  C   2.99427861288297     -4.93595525959918     -0.24045956345129
  N   2.46604927318235     -5.95258756773417     -0.18792112014957
  H   1.86517700773410     -2.46650296966672     -0.24755636308707
  H   2.61543547862919     -2.78440352565369      1.31945682383102
  H   3.81218557932007     -3.41852562657670     -1.39858741363468
  H   5.49484790366835     -4.49728449247396      0.08639459281474
  H   7.33961674418819     -3.52498517002915      0.51701066547922
  H   6.81208447886389     -0.08456269662861      0.29399090204886
  H   6.97201311761748      1.64877013560710     -1.39047039937778
  H   7.37800271422096      4.05564184544532      0.13675416971590
  H   3.16255351010996      2.17092818493102     -0.05168749526638
