25
Coordinates from ORCA-job 6437optt
  Br  0.97328842739634      0.04114154900625     -0.28550868635806
  C   2.86392852800301     -0.07763325523512     -0.01786009357923
  C   3.58042427636400      1.05153326679467      0.40913187472868
  C   2.86332489002043      2.28462110555480      0.87255542794533
  C   2.97803857714281      3.47683858772137     -0.09702900162275
  N   4.21827377015057      4.21059847406033      0.00202242658302
  C   5.31973966222985      3.62278786749545      0.26226334749858
  N   5.66882357591626      2.32342924725927      0.48821078321509
  C   4.97899534027430      1.11416761285066      0.34158635312985
  C   5.80107974502412     -0.00503549518342      0.09330330520938
  S   5.09966318356982     -1.61402673628327      0.08960764446104
  C   3.40097361451483     -1.35573854016599     -0.37136752770584
  N   2.71711747751683     -2.32840343376196     -0.86193151339343
  C   7.20329377463033      0.03432715028902     -0.06932776255676
  O   7.95693561333568      1.01976785530645      0.08648960313398
  C   3.24522592010008      2.75986743593749      2.25810309732727
  O   3.88029955202655      2.15688404870247      3.07451095856028
  H   1.79763679342502      2.06078654284287      0.96728663932991
  H   2.16834249513897      4.18341314029430      0.10987764675962
  H   2.81633494154109      3.10681116265809     -1.11347821439026
  H   6.19708391851018      4.26320974465225      0.34343488020973
  H   6.67940355665622      2.16426353370006      0.53114570887834
  H   3.31610358787001     -3.13225536374918     -1.03464933902563
  H   7.65670830082911     -0.93359293221654     -0.34512166396321
  H   2.83796047781355      3.76623743146967      2.49374410562506
