26
Coordinates from ORCA-job 6440optt
  Br  1.77448683578932      0.86420915233634     -1.32209930664282
  C   3.55667378202430      0.49946363391570     -0.74443372875966
  C   4.40307358477001      1.50849302753071     -0.34589907212602
  C   5.77785478141870      1.24182555377001     -0.03915475631759
  C   6.78655113302373      2.22732625710428      0.03687153413743
  N   6.80781924209058      3.49776752301363     -0.44212068253962
  C   5.81076544477766      4.21914458456760     -0.79449962726792
  N   4.44462076223765      3.97723904276104     -0.65298119098056
  C   3.85817219203333      2.87371124274551     -0.04455322670578
  N   2.86330038168858      3.10402245487130      0.71268151735080
  C   6.12973484607930     -0.14664179595734      0.09264315539592
  C   7.52987379583137     -0.48604038156479      0.57461633290265
  C   7.79842097828018     -1.90136121244634      0.80821455059786
  C   8.04489953021073     -3.05716378157024      1.01102111236335
  C   5.25711888679538     -1.13092846214313     -0.24951371541310
  C   3.94010821180053     -0.89087138302391     -0.78887381015730
  N   3.13865301905678     -1.81965308141117     -1.24563292607858
  H   7.76695068170482      1.90440103338835      0.35759105853906
  H   6.00798311271685      5.20067115956777     -1.21491121119918
  H   3.88981042314669      4.80844809289774     -0.49585432643317
  H   2.44070647048599      2.23007580265179      1.01266797421920
  H   7.73383240686088      0.05404439916063      1.50403650883868
  H   8.26171532969435     -0.11741200671899     -0.15122646239105
  H   8.25409567405385     -4.08327709038059      1.19115182347106
  H   5.56026067389215     -2.16791233845393     -0.15587751266945
  H   3.60951781953585     -2.71958142661200     -1.16686401213420
