22
Coordinates from ORCA-job 6442optt
  Br  1.08786121980163      0.36900648213445     -0.08758357492670
  C   2.94016272680434      0.09015190126708     -0.07742132061244
  C   3.52985913064672     -1.15602883756971     -0.07389742641529
  C   2.86104907804332     -2.39845226587670     -0.07387459928363
  C   3.57652689234413     -3.57158897775549     -0.07179182985721
  N   4.95992326914586     -3.52802728170930     -0.07050998478061
  C   5.74093655291135     -2.40235866520238     -0.06954328393686
  N   7.02118609853070     -2.38778100788066     -0.06852867485694
  C   4.97610865574359     -1.10901436820209     -0.06976927651000
  N   5.66273005163236     -0.01226744269053     -0.06650303340790
  C   5.01828963884073      1.20555090415889     -0.06634916397489
  N   5.59127045057706      2.33589022984931     -0.05930456110297
  O   3.63863925558238      1.25001212972855     -0.07495550983800
  C   3.03912186494228     -4.89706519395453     -0.07083066943972
  O   3.76583572475930     -5.91118585813245     -0.06978223053842
  C   1.59139965363789     -5.01864117324743     -0.07037845512597
  C   0.39499711527002     -5.13691539915970     -0.07032494708739
  H   1.78187266461106     -2.44139608649816     -0.07529876621036
  H   5.39730615289944     -4.44142524918911     -0.06968566652450
  H   7.38188131983068     -3.34123769886784     -0.06872820839480
  H   6.59193723411480      2.15785091822557     -0.05419198617066
  H   -0.66289475066970     -5.23907705942773     -0.06874683100473
