25
Coordinates from ORCA-job 6444optt
  Br  0.95601110302931     -0.52470006877165      0.11890233362848
  C   2.83333302177680     -0.31552056607292     -0.22380239696396
  C   3.49140787092549      0.87399328076974      0.20200914391608
  C   2.73416704551052      2.01909718776555      0.57551445045690
  C   3.05493239562435      3.24027556054859      1.07022811627294
  N   4.32854336967843      3.73187085150331      1.41034391021371
  C   5.47499237464027      2.98585730255613      1.36123360227672
  N   5.75352344638174      1.84652599599854      0.87386498407618
  C   4.95942021960212      0.89514954939084      0.20307144167937
  N   5.70639616021060      0.02223147489043     -0.38004327941354
  S   5.12822316982730     -1.25737853322797     -1.24770086758749
  C   3.39331062713989     -1.42597733816554     -0.87498496228981
  N   2.78780826142760     -2.51667685739750     -1.23894967292166
  C   4.35391697385629      4.95134412539867      2.15811543942185
  C   5.35375826417013      6.00280879102876      1.79758715238716
  C   3.90173472283851      6.20359844484861      1.47411953187347
  H   1.67017496798537      1.92011716852556      0.41225546682743
  H   2.27399470235686      3.96995785489405      1.22710326246880
  H   6.30350328743965      3.51798948408602      1.83021234055534
  H   3.44892323711080     -3.15842504130203     -1.67318059560347
  H   4.09502200593117      4.85812793304837      3.21015524025090
  H   6.01612055358706      5.78091980198006      0.97309993395325
  H   5.79220133211181      6.57894041136008      2.60007757641178
  H   3.60765504874595      6.09733016837187      0.43933214024065
  H   3.33492583809192      6.92154301797239      2.04943570786891
