18
Coordinates from ORCA-job 6445optt
  Br  1.39826793895056      0.65072170304856     -0.46463436533976
  C   3.25029357413535      0.42742612441183     -0.15190342015514
  C   4.09280923190259      1.45893114804108      0.15361169925738
  C   5.49416440391567      1.18471458665782      0.35027355144575
  C   6.47479805036263      2.20939501303024      0.45981818318948
  N   6.46108236123014      3.47232972774297      0.04722340524324
  C   5.36750179521578      4.11203580700771     -0.37279891896324
  N   4.09306413753482      3.91026624122595     -0.15883669098202
  C   3.57852703617798      2.84029645673859      0.50133345206994
  O   2.68011999197956      2.92470020560400      1.31633587358230
  N   5.96804702537266     -0.08304425463707      0.43855256332440
  C   5.11368250074012     -1.05944293716663      0.16622728895795
  C   3.77208656751060     -0.87830536676795     -0.19347702433853
  S   3.09155654380472     -2.39914423720608     -0.49524230614535
  N   4.54844978127024     -3.19127692082886     -0.13132930102658
  N   5.47767817010818     -2.39888827702504      0.18815017020711
  H   7.44038720609205      1.83685860034680      0.78932796005498
  H   5.58948368369629      5.01542637977606     -0.93963212038190
