26
Coordinates from ORCA-job 6447optt
  Br  0.82700815013876      0.45087848513618     -0.35328133552763
  C   2.73890230416873      0.30274786874966     -0.21745596418237
  C   3.41999971420689     -0.80510540965444     -0.68014978073826
  C   2.67911731670684     -2.00234809058087     -1.20576512922540
  C   2.50083207553371     -3.13709126422889     -0.16757200690552
  N   3.36943620134516     -3.12745593457158      1.00025477957446
  C   4.69647813376347     -3.46541672956140      1.16174226496374
  N   5.18178959278213     -3.85850066889022      2.28412217733549
  C   5.67288924681388     -3.29988496708222      0.05737657434830
  C   5.34722579343473     -3.44982147485495     -1.40214091663142
  C   5.65076751140134     -2.08057951993013     -0.86678332623860
  C   4.82503993791436     -0.84828217354069     -0.63031415451205
  N   5.65212731028061      0.18588112815409     -0.30622408051804
  C   5.29099918195007      1.36667069808996      0.13348772546446
  O   5.97479854993039      2.34015103459901      0.39315301474619
  S   3.46950988872588      1.70429500468865      0.48381785144384
  H   3.19012674166045     -2.36390894721933     -2.09294264934078
  H   1.68544997236799     -1.70687453134231     -1.53471584668445
  H   2.53970342343325     -4.10956825694416     -0.67100756966286
  H   1.49589280725497     -3.04575413325134      0.24518367437565
  H   2.87274257314945     -3.10553252987462      1.87426879430387
  H   4.44977099508718     -3.93535353246363      2.98972770781250
  H   6.64792688854107     -3.63274575001695      0.37971842719365
  H   4.35864840197829     -3.76592311921734     -1.67825800768103
  H   6.12139790613198     -3.89786912894110     -2.01117695837218
  H   6.65941938129826     -1.76460805725133     -1.09706526534156
