26
Coordinates from ORCA-job 6448optt
  Br  1.30484870956912      1.14960572261165     -0.03372224612383
  C   3.06774818211514      0.44234029604267     -0.00565058020224
  C   3.40026702121921     -0.83015906377448     -0.36726759306954
  C   2.39870854689892     -1.88417889162411     -0.73888129321421
  C   2.23219661094845     -2.89902166369195      0.38702580676320
  N   3.34445015496015     -3.84185896836384      0.56944317612773
  C   4.70706141071107     -3.49766037095369      0.64494172212563
  N   5.49566072245136     -3.94486888690338      1.53730978510345
  C   5.22842744923415     -2.61459241821672     -0.48762885421261
  N   6.66841137804051     -2.75119270135803     -0.63259057197461
  C   7.41090174928079     -1.80696149317251     -0.19561974838244
  N   7.00941120338877     -0.62535176480594      0.33372023241897
  C   5.66130232437927     -0.25697847534125      0.24746413765173
  C   5.31799003209569      1.04886508736637      0.59063434431077
  O   6.05895089609572      1.93985242669806      0.99287214907593
  O   3.95077726531330      1.38575836826160      0.43501434406409
  C   4.74912712944298     -1.20114303038153     -0.25086177513684
  H   1.42564631551909     -1.43189668128069     -0.92544934262714
  H   2.70019641001019     -2.39878828706680     -1.65507098159023
  H   1.35016187315618     -3.51290330139358      0.18696009138511
  H   2.04434837871977     -2.33475339476561      1.30950781147803
  H   3.12097315458100     -4.48195381674560      1.32024801216092
  H   4.97800587824507     -4.46002528249103      2.25105534757803
  H   4.77634854466526     -3.01467842313554     -1.40166640848129
  H   8.49062313737336     -1.93249731802078     -0.24824579410945
  H   7.66545552158541      0.10304233250674      0.56245822888082
