27
Coordinates from ORCA-job 6452optt
  Br  2.49593880278898      0.17119946611689     -2.00484944729190
  C   4.00199395367979     -0.09316948945423     -0.84766945295479
  C   4.24738768605582     -1.34201791852943     -0.17808450890994
  C   3.24809115887309     -2.46374420923780     -0.17338109017180
  C   3.72926509080138     -3.79244630237138     -0.76652689532240
  N   4.62829209098984     -4.56974277752104      0.10188305882065
  C   5.86307497271055     -3.89044382248550      0.40931678764033
  N   6.96549587659505     -4.29660866457246     -0.05482088135490
  C   5.80223164120171     -2.67969506585376      1.30762693701988
  C   5.44504350388913     -1.39742139009732      0.56464779595390
  N   6.33058035259137     -0.42610896662988      0.71478781646243
  C   6.03362266180457      0.74797992925919      0.07115481133520
  C   4.88562686164420      0.92448211644315     -0.71367899035088
  C   4.92487094642544      2.31338283948293     -1.26697881911141
  O   6.11668341882934      2.88542107344556     -0.75441735588812
  C   6.80950881956135      1.95369992450193      0.04444997534636
  O   7.86491838223502      2.27335550782358      0.54233545033964
  H   2.36467725820747     -2.15072432542935     -0.73035261756575
  H   2.89536366469922     -2.67306757309326      0.85002985511171
  H   4.24547135966125     -3.61023796467304     -1.71088572365500
  H   2.86888386994461     -4.43463496616302     -0.97448543751676
  H   4.13134914621725     -4.70700320107722      0.97954371911659
  H   6.78556287413523     -5.11567177798607     -0.63785613281384
  H   6.77695939454321     -2.51928307047919      1.75976547975076
  H   5.06274156487850     -2.85704727875832      2.09799608336470
  H   4.06289298701549      2.90586021925941     -0.94444056051668
  H   4.95247166002104      2.32068768807967     -2.36110985683796
