25
Coordinates from ORCA-job 6456optt
  Br  2.38957301846968      0.81623025214953      2.26729446352028
  C   3.63352801418343      0.47404001781555      0.86983907341962
  C   4.20071884767649      1.41452993507361      0.08166664287111
  C   5.24695750034066      1.02382418258847     -0.82972141214335
  C   5.73213108443995      2.02614280474360     -1.69861159432338
  N   7.11547749033318      2.36264002977530     -1.66100514543364
  C   7.52159457909016      2.97715118271721     -0.49673711368869
  N   8.75211147723193      2.93645125171528     -0.14249064185971
  C   6.52700606221488      3.77118799266507      0.30369308504178
  C   5.21606015777397      3.73823716093996      0.58993898547901
  C   4.02591713603269      2.87059262318783      0.29915112622858
  N   2.90383125828548      3.47558154070057      0.36204030960261
  C   5.87526375426762     -0.24504412672945     -0.73351993709983
  O   6.88205672558219     -0.60452310308124     -1.37234803505824
  C   5.19990176377874     -1.25388347192112      0.14765276813545
  N   5.56082311365226     -2.47339439735179      0.26596734701350
  N   4.06522498923657     -0.82377451941982      0.82762961215040
  H   5.08214274145516      2.84918438228377     -1.97141626945339
  H   7.74496391882940      1.61203248847011     -1.92823770417467
  H   8.89191231065281      3.47582063884543      0.70648276628810
  H   7.04435437699601      4.59314462582001      0.79191140646284
  H   4.88154063487226      4.56322699892080      1.21341570872917
  H   2.14863589905397      2.81990918815430      0.16176654637020
  H   6.38410869554777     -2.58549005162332     -0.32650129041876
  H   3.59816445000266     -1.52681762643968      1.37913930234101
