26
Coordinates from ORCA-job 6457optt
  Br  2.59050114138513     -1.99774704856309      2.16604173152455
  C   3.54036416217104     -0.74709517334642      1.07479061657078
  C   2.88980054170264      0.38264872255417      0.58017328579976
  C   1.56746305371272      0.79529544537233      0.98586920974093
  C   0.92124992134976      1.64203411080438      0.18511586146687
  N   -0.13378639682143      2.47186795214952      0.49997569805268
  C   0.08994902759936      3.83984896017492      0.24998442444835
  N   -0.84684278783448      4.71690026142702      0.42439339184038
  C   1.40067440174346      4.28457636275734     -0.18720445663964
  C   2.69211343188972      3.80307707779352     -0.39257365829997
  C   3.56333842239606      2.67065551981740     -0.46813192485408
  C   3.66152561943978      1.29896340608977     -0.19345616311420
  N   4.87804604020382      0.68347473176566     -0.69708594536185
  C   5.35312149496917      0.81660132783823     -1.96764646142831
  O   4.88997259038257      1.48241345193541     -2.86783182920826
  C   5.52393578522067     -0.21160135745480      0.17874204575421
  N   4.86847170184741     -0.94653190617649      1.00627469904524
  H   1.20316877811360      0.54575211453397      1.97646279091717
  H   1.30469393878002      1.81686381937469     -0.81034783945307
  H   -0.62063528620209      2.28599508274874      1.36538235673193
  H   -1.71176863643603      4.24883901396263      0.68975720736734
  H   1.33373361766522      5.35125217005873     -0.36511256226129
  H   3.30141044095227      4.66130429982867     -0.66744935949938
  H   4.49758253719148      2.99687613847840     -0.90838664780402
  H   6.27137912656878      0.21721317072464     -2.09996085465949
  H   6.59953733200929     -0.29747765464940      0.09022438332335
