25
Coordinates from ORCA-job 6458optt
  Br  1.01096868759851      0.26646697300895     -0.39563262906322
  C   2.89057170137158      0.08542520478840     -0.18113077477521
  C   3.52563478090651     -1.11827184792760     -0.11555714609580
  C   2.87724210680323     -2.40704752027827     -0.19553488864604
  C   3.62318375347736     -3.51673591460899     -0.11901153450033
  N   4.98606223546763     -3.45534298221232      0.03852141333716
  C   5.72063229004888     -2.26626540662239      0.14033017299989
  N   7.00484761217381     -2.27119580318895      0.30646517326905
  C   7.66612222476283     -3.53803755283228      0.39073910054701
  C   9.15648415196722     -3.29556976593393      0.64789954886148
  C   9.92662951571613     -4.53330666690917      0.72814161969210
  C   10.53033069129851     -5.56885725400522      0.78616728521452
  C   4.94796530525313     -1.04289203977688      0.04926780030629
  N   5.60653899951674      0.13129699465837      0.13016705713527
  C   4.96543059791852      1.28591413415396      0.06452195421322
  O   5.39556830992477      2.41012947132224      0.12468506786473
  O   3.50603886742114      1.26483677052679     -0.10909802309295
  H   1.80753080340400     -2.47617858127477     -0.32030905555634
  H   3.20298240258490     -4.51136533281764     -0.17801027221214
  H   5.49789954009920     -4.31650223399725      0.09520976272517
  H   7.57197889158932     -4.13257418784535     -0.53483743361745
  H   7.28214196399625     -4.17333386391587      1.20852795686822
  H   9.25871050141339     -2.72847961332912      1.57466035762937
  H   9.54524983115235     -2.66242810778818     -0.15143702541260
  H   11.07525423413405     -6.47968487319449      0.83925451230863
