24
Coordinates from ORCA-job 6463optt
  Br  0.86435133991641     -0.83663391478227      0.60222138888308
  C   1.62800088718072      0.50198077953998     -0.50579150221954
  C   2.64729432518145      1.42253104448753     -0.10280415510544
  C   2.52928310194090      2.32217665847945      0.95790035829544
  C   1.52130419509468      2.29710762102095      1.90025992834503
  N   0.87566946880517      3.51651925214058      2.23681658784677
  C   0.13669896359942      4.27578978220177      1.35599666412246
  N   -0.28491669504663      5.46540495197811      1.58815927991969
  C   -0.27339567132856      3.70029259774754      0.03692095890693
  C   -0.58613269000300      2.43181016122124     -0.22224823005191
  C   -1.15648889081201      1.98586427383543     -1.52356794355163
  N   -2.16369037648509      2.50782918671506     -2.08962221561578
  S   -0.46349042986407      0.54372641831230     -2.32823686232682
  C   1.23236981868197      0.74270435279793     -1.80080791092535
  N   2.04022175717180      1.32225185127294     -2.68855020453903
  N   3.31027709257610      1.52830672470598     -2.31286355786763
  N   3.61185438476842      1.64294845526860     -1.08192355740624
  H   3.14635166532273      3.21498291963837      0.88226080569582
  H   0.99358366517391      1.38782070940499      2.15371464813004
  H   0.89811115615305      3.86526254567803      3.18374021731640
  H   0.02765963664560      5.78686041390357      2.50472574512550
  H   -0.40136242196751      4.45591261010040     -0.73018165167631
  H   -0.45904309850669      1.65813619616882      0.52284491603678
  H   -2.52751118419879      3.26141440816261     -1.50496370733827
