23
Coordinates from ORCA-job 6470optt
  Br  1.08886870558824     -0.09582951553764     -0.13373440350319
  C   2.95821740607447     -0.46362843024647      0.74807197995423
  C   3.75957980710057     -1.44674029282536      0.12727221284636
  C   3.46253998133460     -2.77902595112562     -0.27863758861711
  C   2.10551243802970     -3.41993160762824     -0.13768302842348
  N   1.54883250714229     -3.31004624919903      1.19462194819712
  C   2.15029107784652     -3.93967982618989      2.25626690357389
  N   3.07913425780901     -4.81237804809069      2.23754757761359
  C   1.59068050616145     -3.54722531657838      3.54050124296521
  C   1.13046821460456     -3.18355978384653      4.58405774877679
  N   4.44199694026477     -3.46926043704453     -0.79362019512508
  S   5.83735784664089     -2.53867103662239     -0.81891664772154
  C   5.11166657972714     -1.13501391026112     -0.11307850856650
  C   5.66699348188823      0.09408181634596      0.18415488616695
  C   4.86764315187967      1.07327053333743      0.82314399870663
  O   5.16818483025693      2.18309562049402      1.18819404846988
  O   3.51879424064232      0.68738816485498      1.10534968134967
  H   2.18726300411226     -4.47057553107801     -0.42092866665098
  H   1.40421112344961     -2.93528480775259     -0.81630791300218
  H   1.07761855508626     -2.43880354828857      1.39848743365419
  H   3.43687533613739     -4.95639460532020      1.29412666974888
  H   0.73790829334031     -2.85694199482556      5.51638290965661
  H   6.69336171488272      0.35215475742851     -0.02227229006996
