27
Coordinates from ORCA-job 6474optt
  Br  2.68215010214406      2.50616404698329      3.44941832195357
  C   2.92830659718415      1.58380886049589      1.74299126581905
  C   3.81032598986218      2.09108307131327      0.83132172738442
  C   4.08085595962082      3.54683654215134      0.63953182468111
  C   3.03045210507164      4.15093753637650     -0.34068177156602
  N   1.68121131048247      3.68187063460771     -0.06498280734147
  C   1.09152583388117      2.74064672067917     -0.89680711008720
  N   1.41700936340183      2.66634902155124     -2.12398037722688
  C   -0.02242181032328      1.94036583658335     -0.23105950129646
  C   -0.14635917523017      0.45813695883155     -0.60018632073338
  O   -1.10704742267541      0.03635212939809     -1.18220160756331
  O   0.80036439592286     -0.38898087018083     -0.15863525216397
  C   2.00438833544407      0.18081162334071      0.25249068515640
  N   2.08012816852380      0.59162978569884      1.52918382549411
  C   2.97750644392365      0.41152366345192     -0.76002933638307
  N   2.90702989668036     -0.07280541272797     -1.95595155579809
  N   4.00272451469661      1.26239086991829     -0.30212361108506
  H   5.07820314248293      3.73486401697218      0.22518348370848
  H   4.02967136865752      4.05798222238578      1.59994000852203
  H   3.25302696682351      3.85902554883008     -1.36618269334668
  H   3.07399210461104      5.24202986851792     -0.28802120862277
  H   1.50541429239648      3.51801910722910      0.91561855448299
  H   0.93225516079099      1.90244547083856     -2.58606840737362
  H   -0.97602331452337      2.38246799060692     -0.51726047080385
  H   0.07829369772348      1.99017032682299      0.85513434443023
  H   3.65698910066146      0.30292490989310     -2.53270582607067
  H   4.58502687176508      1.63894951943099     -1.03393618416989
