23
Coordinates from ORCA-job 6475optt
  Br  1.73466912410969      1.63356139057537     -2.44953613406174
  C   2.85617794748904      0.69854049025049     -1.22024473499440
  C   2.47543820152423     -0.51825216832304     -0.73482095921294
  C   1.23226909620843     -1.15738434272861     -1.18077737662073
  C   0.49743491448710     -1.77567067060234     -0.26743538469621
  N   -0.44479317459726     -2.77356566317292     -0.52797512707422
  C   -0.01385504785804     -3.91593679658866     -0.16258431974855
  N   1.21320530984939     -4.26444033588987      0.35341424583149
  C   2.51614233523318     -3.68450272404808      0.67058671525237
  N   3.07718247791890     -2.57819666267953      0.52735877634024
  C   3.30004047432433     -1.30331506510307      0.17901037942481
  C   4.50329361574097     -0.70152399112940      0.67011474069095
  N   5.38498959945170     -1.22337316089399      1.56821585043088
  C   6.31485474783650     -0.27684320216412      1.67158684942619
  N   6.14680473658759      0.83744822348998      0.92307184787484
  C   4.99659979420784      0.56314760174488      0.29475961407837
  S   4.27710055196020      1.62158315734367     -0.87011495695117
  H   1.02476083204866     -1.27122207070034     -2.23874588324303
  H   0.73084535585407     -1.61641100354338      0.78446173640185
  H   -0.67184033118822     -4.77769963923102     -0.26226515208418
  H   1.24261377097888     -5.24150012483472      0.59811124000824
  H   3.06787950322919     -4.50016374604726      1.15050397823494
  H   7.17018616460361     -0.38327949572400      2.32630405469199
