24
Coordinates from ORCA-job 6478optt
  Br  1.15038884142095     -1.97704722308760      1.27162433232715
  C   2.88473619624659     -1.36424024782007      0.76738428539777
  C   3.12829221352730     -0.00097515745942      0.71203235692294
  C   2.17739206527269      1.05412400481523      0.99056758617505
  C   1.00126682120471      1.30660442797325      0.41501332121374
  N   0.47277485890833      2.58953421454969      0.43120522997307
  C   1.27901685479791      3.57684810708760      0.32249134370031
  N   2.64416002893291      3.71215572867470      0.08547018499176
  C   3.92427771945897      3.05626259695173     -0.10597650213172
  N   4.47670362660462      1.93033892945289      0.01645785958062
  C   4.35028639117410      0.59329476735187      0.27290891663499
  C   5.48492170075883     -0.18811131280960     -0.04561015346094
  S   5.52974475607378     -1.91157880965203      0.26458506480851
  C   3.83452346426919     -2.40618475483093      0.53228130128182
  N   3.57328686337171     -3.66243104814708      0.58010966730796
  C   6.66524952851785      0.32689677934782     -0.58627925970281
  C   7.71798216301106      0.71527970719001     -1.04389787005388
  H   2.60970898016074      1.87086077102687      1.55499354839512
  H   0.42786900123925      0.55517578939030     -0.11499227547552
  H   0.83005088029546      4.56748584505289      0.37017262420901
  H   2.81966154676513      4.68616873226844     -0.10199638036985
  H   4.57997405568274      3.86463275631456     -0.44048997982014
  H   4.40730930422934     -4.21393103217341      0.39102641750494
  H   8.63342213807578      1.07183642853229     -1.44608161940991
