30
Coordinates from ORCA-job 6479optt
  Br  2.39609235445308     -1.38996159317052     -1.88499311847846
  C   4.23366643721541     -0.55184850410583     -0.21735659518809
  C   4.34203041555851      0.81948931394150     -0.00377827829362
  C   3.07532552389295      1.63520838269390     -0.11368529925304
  C   3.13048235075555      3.00719275270116      0.53440090007521
  N   3.98342952450539      3.91776872179888     -0.21385141707575
  C   5.22322585839615      3.73064534110106     -0.13882292414776
  N   5.89281524811856      2.70010541359740      0.55667614981725
  C   7.03512838320764      3.06785152405712      1.25254128645937
  N   7.39214135527166      4.24539154977910      1.57621965653674
  C   5.62303582401941      1.30326731874161      0.29999731651016
  N   6.70895162062780      0.53466203374146      0.38210972632825
  C   6.55415418023727     -0.76084854671769      0.16005932068723
  C   5.34169389440382     -1.36030906962543     -0.15401987982042
  C   5.51383896286672     -2.84016397607082     -0.35769185768102
  C   7.04283191238295     -2.98468760977569     -0.52658871873422
  C   7.65977692945652     -1.78522137352273      0.22108970538737
  H   2.26953114275904      1.04499478723638      0.32526012041167
  H   2.81398258580050      1.73949297680774     -1.17029033629170
  H   3.49973334218189      2.91547702274736      1.56343440949545
  H   2.13079613057714      3.43898189676303      0.56697194088421
  H   5.90068852458260      4.42533484953906     -0.63652213720132
  H   7.64849010411703      2.22052491060228      1.53163738701570
  H   6.71206365912240      4.94844369259904      1.28993774864538
  H   4.94107687416418     -3.19358382539071     -1.21482295006371
  H   5.15750726264480     -3.38809708966093      0.52052617760980
  H   7.28884344024968     -2.90239695540132     -1.58725985409564
  H   7.42189767220781     -3.94372349156060     -0.17289113919125
  H   7.87272620003103     -2.03320742988831      1.26659216176526
  H   8.58704228619234     -1.42178302355749     -0.22287950211306
