29
Coordinates from ORCA-job 6486optt
  Br  1.10202942025959      0.36052669354030     -0.82795192679409
  C   2.99752765389762      0.17906129409428     -0.51983485469763
  C   3.62733918109631     -1.06933363776855     -0.79592338288503
  C   2.91047268077935     -2.33938922787301     -1.08120811504623
  C   2.41974165811002     -3.09668328781831      0.18270835784406
  N   3.25658949378230     -2.99426450524755      1.37131124708560
  C   4.60038454285464     -3.21191154587535      1.48945642910489
  N   5.26715681337848     -3.17679199216939      2.58066835380098
  C   5.36103185500502     -3.50298946862931      0.21615210318362
  N   5.80211892954424     -2.26695842383363     -0.42092834776066
  C   6.58165848251902     -2.48024971640075     -1.60503341882978
  C   5.89713816358765     -3.20288038501367     -2.71685323821281
  N   5.37655943966367     -3.79423546642947     -3.55169925160111
  C   4.99991624747040     -1.07490112582111     -0.36000055657438
  C   5.59673425647241      0.06488165262836      0.10897952740570
  N   5.00373883788703      1.28608930364764      0.21329617102127
  C   3.66784277580685      1.27951849839000     -0.07228914972736
  H   3.53900960101705     -3.00213573662491     -1.67539615311373
  H   2.02337098880799     -2.15326518155367     -1.69061430801867
  H   2.24620034384933     -4.15138011161311     -0.06569855006175
  H   1.45794178926150     -2.67347301620522      0.47402112856929
  H   2.83140292568076     -2.55562734998014      2.17057538281617
  H   4.66081185814730     -2.94583077249698      3.36837223404868
  H   4.75665352682675     -4.13593764330371     -0.45010505195081
  H   6.24753175524012     -4.07263562382790      0.50298360018365
  H   7.47085736152717     -3.07519405640985     -1.36761676083125
  H   6.91048159528031     -1.51579596525679     -1.98955836103913
  H   6.63494636747191     -0.00027460257480      0.42438391656062
  H   3.13381145477506      2.21306140042664      0.06780297551987
