26
Coordinates from ORCA-job 6492optt
  Br  0.89603639537918     -0.55321280300967     -1.06002783227220
  C   2.88377861009832      0.02737633578252      0.30874875253957
  C   3.60788211491886      1.19512355831208      0.12929721449878
  C   3.18306124272400      2.53757000717756     -0.14812096527515
  C   1.73900978493201      2.93659985368115     -0.19041329001177
  N   1.16223020016517      3.12459810097949      1.15142449074377
  C   0.53981061725718      2.03461217851700      1.76581390680099
  N   0.31673858877619      1.84800861009634      2.99917160231987
  C   1.39322343138977      4.34492379008452      1.76120587470266
  N   0.79627020698606      4.89389659496811      2.73735616712205
  C   4.22467480952991      3.37880058260815     -0.32179914876515
  S   5.77882928747141      2.60240675122710     -0.14704861835938
  C   5.01932777618353      1.05074309521185      0.16987401726998
  N   5.70558013986080     -0.03916700783030      0.37926214419080
  C   4.98791081554701     -1.19029488766780      0.58743781341255
  N   5.45924802085208     -2.35908918646219      0.82011790675967
  N   3.57530613942507     -1.08111059558505      0.53209490044313
  H   1.15934022754428      2.16103525431282     -0.69295422642029
  H   1.62071355836620      3.86640198204837     -0.74672441399650
  H   0.24840145149263      1.26856090048854      1.04780550067339
  H   0.71110530733783      2.58608437307919      3.57871068562144
  H   2.19923277935251      4.89595877870421      1.27528118172074
  H   0.02755172018887      4.32052936527087      3.07954076858620
  H   4.17690723472206      4.43309157340676     -0.54842467458768
  H   6.47264966935645     -2.29549188698818      0.82691733780313
  H   3.08217987014249     -1.95995531841352      0.62445290447936
