29
Coordinates from ORCA-job 6495optt
  Br  1.21307151175289     -0.95027450627834     -1.91211465649351
  C   2.94009842325752     -0.40294994191368     -0.14895428451704
  C   3.66524935873090     -1.46412111254998      0.32165735005280
  C   3.04598560649444     -2.81840447632465      0.49349054573779
  C   3.46721924645406     -3.81712073656862     -0.59713675236389
  N   2.57628802159222     -4.96526215043473     -0.64750324334936
  C   1.31225931900512     -4.86686282909945     -1.17485351863664
  N   0.35009665419334     -5.68747433006647     -1.03049182125974
  C   4.90963534777145     -4.33327360678248     -0.51732762405507
  N   5.26370928709451     -5.49152649597580     -0.92219759950072
  N   5.90972587074931     -3.49142795075254     -0.08278967328451
  C   5.85247704609243     -2.45846626886524      0.94723278555475
  C   5.04662453278587     -1.25885843574930      0.52924168877230
  C   5.64157955447379     -0.04305546136787      0.33211283653812
  C   4.88086712796240      1.09147394165371     -0.11417867941835
  O   5.29510495391204      2.23210758353269     -0.30268335555430
  N   3.53358279429460      0.78449635614350     -0.34756715686740
  H   1.96559036803718     -2.70362989343311      0.40664116744407
  H   3.25440964032787     -3.24655448189821      1.48163595190991
  H   3.36880313630373     -3.28882106724341     -1.55195158579797
  H   2.69167133749406     -5.63923657010564      0.09797022753724
  H   1.17291897613596     -3.97976450209899     -1.79548982626861
  H   0.61536191811954     -6.45665852151903     -0.41221022696516
  H   4.46718628606688     -5.97385706161432     -1.32762601956104
  H   6.79450914029566     -3.97440298800669     -0.13454407208603
  H   6.88241692716046     -2.15653519917225      1.13191539839664
  H   5.45471638114735     -2.85581551569565      1.88927444891365
  H   6.70230496154161      0.10665412094779      0.48138357030312
  H   2.98353627075269      1.54462210123884     -0.72793587518105
