25
Coordinates from ORCA-job 6500optt
  Br  1.00439389969272     -0.18313672928823     -0.08080139749211
  C   2.92073385444068     -0.09963438272637      0.01373873361484
  C   3.56865210150872      1.10680725247072     -0.04901452465427
  C   2.87214917303844      2.42820842271920     -0.21327238564598
  C   3.67924546228973      3.51966356109037      0.47750960247146
  N   5.05004307888479      3.58872484618759      0.03100116723986
  C   5.63203168134080      2.44108144897902     -0.13464354628899
  N   7.01017211626285      2.45802222401569     -0.44944742970932
  C   7.73825538495812      3.57821109844428     -0.65133165675540
  O   8.93155447342250      3.57828816749272     -0.90505581679813
  C   5.00590250844980      1.14882697464105     -0.03733752435109
  C   5.69650559319074     -0.11676449758517     -0.00375665993791
  N   7.05047088848946     -0.30119454159762     -0.03085335298312
  C   7.38729983114189     -1.55350776094873      0.02812898546365
  S   6.04725176309392     -2.65512272905945      0.12241522098840
  C   4.95348601930003     -1.31425075466572      0.07511123278708
  C   3.56591370041468     -1.35127963273584      0.09855240806978
  H   1.85926451223209      2.38884561272081      0.18580593970222
  H   2.79594759456094      2.66365362188560     -1.28193461430564
  H   3.65614051851268      3.32863687849039      1.56224808031629
  H   3.20850374933350      4.49265375526404      0.31868438374575
  H   7.49179935298961      1.56411703372003     -0.47656105305983
  H   7.14311930169189      4.49426331421896     -0.57223180745087
  H   8.40580565281932     -1.90859329352711      0.02019067157056
  H   3.00535778794000     -2.27051989020624      0.15985534346274
