23
Coordinates from ORCA-job 6501optt
  Br  1.23126392378000     -0.39521659225108      0.21786143865947
  C   3.10821090964564     -0.16753848899093      0.08474624900774
  C   3.68919542710657      1.07108899935296      0.05714741167916
  C   5.13776175656688      1.11830243333480     -0.02395070935809
  C   5.80630953003747      2.34734404285541     -0.03891571968055
  N   5.10661815678946      3.52404284627456      0.02216789618780
  C   3.77859350123515      3.55152275852922      0.08877570726882
  N   3.15587299380693      4.80110636385668      0.14856438300127
  C   3.73587026565913      6.01913005541938      0.14413378713342
  O   4.93318498409928      6.24518893845893      0.07861398526219
  C   3.00931485785496      2.37317336660175      0.10374786899286
  C   1.62292909294335      2.62934223281652      0.15936206285908
  N   0.56208554498920      3.09511085060556      0.20689609819620
  N   5.88704217084942      0.00071424984945     -0.08073439638177
  C   5.29701022107256     -1.16957563283307     -0.06174018241138
  C   3.87861438129277     -1.39800992906922      0.02233967657193
  N   3.31184442701654     -2.57388607081120      0.04375983241216
  H   6.87920729350745      2.41228750311703     -0.09469558524193
  H   5.58051390586517      4.41942084222091      0.01581698289258
  H   2.14403250851740      4.76121201072045      0.20207420714221
  H   2.99381975356294      6.82680573685078      0.21149425692018
  H   5.93751143155928     -2.04840186615881     -0.10875182365598
  H   4.04119296224241     -3.28416465075009     -0.00771342745738
