24
Coordinates from ORCA-job 6502optt
  Br  0.95596395559879      0.04594259839263      0.00996562565011
  C   2.86087031629715     -0.04729338591422      0.15128746528890
  C   3.60585826874440      1.07932583262564      0.52242845754137
  C   2.93998687715650      2.38731222573724      0.85130624506530
  C   3.09538777146228      3.35797463421828     -0.32454360477122
  N   4.40071767582544      3.97732501491110     -0.48626702366233
  C   5.44983513478424      3.52717496746236      0.04675654532337
  N   5.64992605085509      2.35156528706806      0.78425749089696
  C   6.70195881822131      2.33960954653355      1.68061479674446
  O   6.91469766201699      1.47271759590228      2.48383390625542
  C   4.99347177860701      1.11731380130994      0.46410556009389
  C   5.81493423731159      0.06591426138707      0.02326074486189
  S   5.15313082521434     -1.54531397165021     -0.09076798607817
  C   3.36693826001857     -1.34707229340106     -0.14025799523844
  O   2.72911669234972     -2.35451676376898     -0.38783277442872
  C   7.17538034878278      0.18309754027427     -0.39844918388949
  O   7.88093916423581      1.19777474142279     -0.39871248385114
  H   3.39964507449270      2.82439840140512      1.74059642841043
  H   1.88423299618559      2.24487519013872      1.06025457524828
  H   2.38463757415888      4.18159148114588     -0.21614087683072
  H   2.82899802777795      2.84305945371416     -1.25252763462027
  H   6.35912689914911      4.12237353255003     -0.03551989781191
  H   7.31665222065207      3.24983690311441      1.61201806042647
  H   7.60059337010161     -0.76598659457908     -0.77466644062444
