26
Coordinates from ORCA-job 6505optt
  Br  1.57312035062335      0.63252128131858     -0.75998243788681
  C   3.39407464484239      0.15564501235388     -0.37488000851752
  C   3.84889731356896     -1.13426472476401     -0.59129322661632
  C   2.97956874956886     -2.26136801014219     -1.08240611223852
  C   2.26274212579447     -3.16318128226429     -0.00510899282009
  N   2.88185807420494     -3.24638317707226      1.31773195613647
  C   4.28224058502417     -3.17448617171218      1.40512830945876
  N   4.91243697159742     -2.61586322691066      2.39028740025927
  C   4.97937975411276     -3.69538688309533      0.22766496559353
  O   4.57808688470795     -4.70226275812442     -0.41945639184268
  C   5.89314097535461     -2.66634823768631     -0.41779124897673
  C   5.23379629804014     -1.30954385430259     -0.34368070331732
  N   5.99736483304633     -0.29340495323059      0.07884813870149
  C   5.40529212729299      0.87433625412092      0.27179697513684
  N   4.13157821922637      1.16566232046556      0.06391395673902
  C   0.86045365137105     -2.78120470321578      0.17817980037903
  C   -0.28867177697646     -2.48177815543640      0.34381031552686
  H   3.59581773082393     -2.93234218882518     -1.67861708480442
  H   2.20536587473076     -1.85651857157257     -1.73419390508129
  H   2.28494009218953     -4.16623725379926     -0.44023678037229
  H   2.41365468350062     -2.68009812834180      2.01099293914989
  H   4.25588019587490     -2.16598474551453      3.02934710997730
  H   6.03261822053113     -2.97733516525611     -1.45643556277684
  H   6.87278920788179     -2.56833770791602      0.04988184858134
  H   6.02862069415714      1.68479975780948      0.63741646444024
  H   -1.30204648109022     -2.19663472688588      0.48808227517079
