23
Coordinates from ORCA-job 6509optt
  Br  3.35221795638504      0.18386582910084      2.43887040353732
  C   4.45349626805047     -0.05325912581381      0.93413154906412
  C   5.77447764772410      0.28432819247252      0.89049800412329
  C   6.35624620271656     -0.03214484149503     -0.38498352044672
  C   5.85981847395079     -0.91859759580736     -1.27956293080141
  N   6.82602344051417     -1.50566592288031     -2.14803357645295
  C   7.75791423649045     -1.91919486532987     -1.35903189942827
  N   9.08825217647136     -2.11512582700086     -1.56310536391073
  C   10.04090655400899     -1.49565005198052     -0.62962699624604
  O   11.19674777902377     -1.53648507206059     -1.02655632321508
  C   9.64016435005510     -0.70440216928426      0.51780834845825
  C   8.42882678944648     -0.55366173249571      1.18863576645119
  N   8.00984159045554      0.51778109013134      1.87439341356705
  C   6.68595413161402      0.75201968037220      1.91723144114286
  C   4.44891678698430     -1.26830529455505     -1.17480442584259
  O   3.78913861642127     -1.96143995340400     -1.89417639984085
  O   3.80095795124191     -0.64864527967330     -0.10091819881883
  H   7.34519216802598      0.35672404884195     -0.57515773881312
  H   7.52175130097796     -2.10717312102117     -0.32419056669204
  H   9.44565142077542     -2.02271873018278     -2.50575020504687
  H   10.41130736475349      0.02174431265420      0.74842113462877
  H   7.70899262800613     -1.36577309800063      1.16403028323261
  H   6.30020416590660      1.35577952741221      2.73087780135002
