25
Coordinates from ORCA-job 6512optt
  Br  2.36726468808361      1.74552767781030     -3.24365328100709
  C   2.57059614842737      1.20844457456580     -1.38609087743889
  C   3.37358633800684      1.93186031942094     -0.56814722019644
  C   3.55463860031594      3.40944237110505     -0.63209347390545
  C   2.37830434860602      4.10096873158017      0.11461503321073
  N   1.07498537708072      3.60787553845888     -0.31208632418518
  C   0.39924305278785      2.70328126222740      0.47018655293600
  N   0.44820990391526      2.72490732832763      1.74136531976707
  C   -0.47813030579476      1.73117916502904     -0.31219156286459
  O   -1.10239498000883      2.12013686706470     -1.26690536723456
  C   -0.65182265728846      0.28486672981461      0.17010863391234
  O   0.44037482256518     -0.27904396229300      0.86181562971259
  C   1.65805547350907      0.12267346242728      0.34814119765359
  N   1.75403774927059      0.23527115213541     -0.98864487387130
  C   2.59999794983434      0.62716429472008      1.28811928131441
  O   2.63197646428301      0.47142473689525      2.48995987814902
  O   3.61002009094504      1.39163209941209      0.69139981097887
  H   3.57624036948457      3.73551411503765     -1.67163925587569
  H   4.48833963079385      3.72264867668340     -0.15772780444976
  H   2.43831052691552      5.18290230739037     -0.02846323022154
  H   2.45236706867421      3.89593350751599      1.18208998206549
  H   0.96862729104759      3.43889534633052     -1.30363606287502
  H   -0.01316566299581      1.91437338139508      2.14622719634354
  H   -0.89758376904952     -0.28059118928997     -0.73043191608119
  H   -1.50707851940924      0.24871150623532      0.85168273416305
