23
Coordinates from ORCA-job 6513optt
  Br  1.04999094527648     -0.08437231885286     -0.17224458336884
  C   2.94058994724027     -0.06351923074853     -0.07978109487063
  C   3.61799316477273     -1.27145183633830     -0.02690682938983
  C   3.04531000271194     -2.55946196092485     -0.06379883843905
  C   3.83578115104495     -3.68039452835408      0.01898611315360
  N   5.16548068126874     -3.61463690247077      0.19609401524037
  C   5.71177099727289     -2.43150308149736      0.21800300829050
  N   7.08981430056619     -2.32510844556955      0.40519275457316
  C   7.96683608823650     -3.32635333449785      0.10705221934997
  O   9.12696950069846     -3.32127348558463      0.44844606770992
  N   5.03464280372563     -1.22602730710400      0.03975667639200
  C   5.67330923075735     -0.03221395382372     -0.03433158888278
  C   5.02031823145931      1.18818430815750     -0.07922045021475
  C   5.80321394054584      2.38996416615152     -0.13588136292997
  O   7.03530456836635      2.42347057459711     -0.14472372483724
  C   3.55857666918556      1.24427649321989     -0.07769727820534
  O   2.92727633192602      2.29809343207087     -0.08941562652539
  H   1.97518353061781     -2.63943172985709     -0.15850688138212
  H   3.40634641327103     -4.67320009125894     -0.02008416172698
  H   7.46089960512752     -1.54971950529263      0.94059047781736
  H   7.50513470757483     -4.12873671630359     -0.47997552203613
  H   6.75006181439512     -0.03735658074575     -0.08538527973755
  H   5.21319537395836      3.31777203502763     -0.16916810998028
