22
Coordinates from ORCA-job 6514optt
  Br  1.26096515133082     -1.13347470472334      2.30682507989257
  C   2.75395096026382     -0.57590977500213      1.23296854442579
  C   3.61002805859700     -1.65075947922876      0.70222226225770
  C   2.82348416004892     -2.80064814591041      0.19277396707478
  C   2.39933415256668     -2.65075051087584     -1.06545989510585
  N   1.27647769381328     -3.27450774318711     -1.62974102657836
  C   0.15327397363720     -2.68644924011444     -1.63139056990867
  N   -0.34179145632890     -1.47935560364525     -1.16713192097860
  C   0.15203172065519     -0.27223949514463     -0.53584070370163
  O   -0.71209316582903      0.39324640813561     -0.00625249310585
  N   1.42960280053836      0.05842951632857     -0.79168408743767
  C   2.45767853902452      0.12801487059199      0.01660777252212
  N   3.61760576765445      0.68231135186740     -0.52762331819268
  C   4.78395803326158     -0.08267269562082     -0.41117054425738
  N   4.75784788745530     -1.28464937873435      0.06136274774417
  C   -0.93528029697294     -3.45200959232412     -2.25820569314710
  N   -1.80449283386501     -4.01720229322492     -2.74709107157233
  H   2.29237469816838     -3.46003392656404      0.86854724336242
  H   2.89921830430527     -1.94919374775294     -1.72673513084437
  H   -1.35105325305136     -1.45736268767698     -1.12362266423191
  H   3.47181468898909      1.11964537451351     -1.42813114992722
  H   5.68606441573735      0.34457149829306     -0.83022734828989
