23
Coordinates from ORCA-job 6515optt
  Br  1.27311705025100     -2.33306819051972      1.60089191297054
  C   2.64043111643893     -1.26366346942646      0.82100127374165
  C   2.53333920320350      0.06345207888624      0.67868614028817
  C   1.49329413734941      0.97090630791237      1.20410517419734
  C   0.44012312454279      1.38167924250751      0.50009639468007
  N   -0.15634034145987      2.63581107695505      0.72062757770946
  C   0.56885657501641      3.65380663983892      0.45321786341451
  N   1.80470323579396      3.72355967045769     -0.16455727388599
  C   2.41559466984191      2.52756369561929     -0.73398724228366
  O   1.82883332916562      2.02095321628944     -1.67884755098704
  N   3.54034226576950      2.13455248509044     -0.13268291726643
  C   3.68405035854609      0.79738983417541      0.05517259448013
  C   4.85514644054493      0.09367374987124     -0.13500391715645
  C   4.93136202016197     -1.28939584660210      0.09671989157647
  N   3.76534564283969     -1.97381831461467      0.49709995563951
  C   6.08797541864905     -2.05299229692801     -0.07922969217688
  N   7.02964981462224     -2.71060425814788     -0.25666464122077
  H   1.83911855892570      1.62798002633791      1.99982054408966
  H   0.08491501370853      0.82227318219923     -0.35862325419793
  H   0.18033660316857      4.63361042852819      0.73082066507475
  H   2.45636692709903      4.35602927259102      0.27923996363219
  H   5.73255803528115      0.60863351719639     -0.50112565471442
  H   3.68388080053970     -2.96033204821759      0.31322219239508
