22
Coordinates from ORCA-job 6518optt
  Br  1.92907929623857     -0.91594295529642     -2.29252496507969
  C   3.14864398028853      0.09643761446474     -1.20910027515705
  C   3.31274966184882      1.42417106953621     -1.29345570719653
  C   2.32972731449359      2.44686674912637     -1.68162079056058
  C   1.09807664037628      2.29714916771957     -1.20828223660318
  N   0.19768833363815      3.35804903183032     -0.88427798538882
  C   -0.03037864617602      3.47782764687973      0.47913392722909
  N   0.75653622135562      3.22701706391277      1.43735741712395
  C   2.15365461323410      3.02708939046396      1.31568328015397
  O   2.90364136091775      3.96309841404954      1.30440727952898
  O   2.48936761755965      1.73674327028683      1.32857219392468
  C   3.87348178936541      1.37244694054494      1.01693568013066
  C   3.92846379452270     -0.10544595190720      1.01739817460424
  N   4.10475576984677     -0.96729332695985      1.91656402830849
  O   3.75538830130902     -0.67816439621111     -0.29574580574828
  C   4.26167159435068      1.88768209319774     -0.24962417227573
  Br  6.12569227624367      1.70381145360632     -0.68084031353016
  H   -0.64350204426794      3.43206456665442     -1.43803198751110
  H   4.29028800310210     -0.46241375080324      2.77948518958339
  H   -1.03470276106429      3.82828579998866      0.72233084536330
  H   2.69520209757900      3.41689868879297     -1.99727017281014
  H   0.81747478523780      1.34062142012273     -0.77809360408948
