24
Coordinates from ORCA-job 6521optt
  Br  0.69742394830714      1.57874101183410     -0.98296787575473
  C   2.44021012157932      0.92081642147331     -0.53929992538054
  C   2.63961987435098     -0.45709165132701     -0.30008862346005
  C   1.55003252070320     -1.36799246492896     -0.33304288884451
  C   1.45366203662942     -2.70800739990498     -0.15352766587414
  N   2.49597022800093     -3.56836307809468      0.12046336091143
  C   3.81200566807959     -3.22613295284394      0.26169081619643
  N   4.44536542385158     -2.12021906996884      0.20711516916364
  N   3.98019804322703     -0.86027341084453     -0.01621193775996
  C   4.99663025865206      0.07423450844833      0.05341800924057
  N   6.25395972543595     -0.22542013894209      0.32225934365524
  C   6.93207289763974      0.98373513155053      0.29631432778496
  N   8.17299716442897      1.19263202702789      0.49744771872615
  C   5.97228009826268      2.12552798960797     -0.02131045302530
  N   6.25445436335678      3.36737686812474     -0.12211783821808
  C   4.71096468636391      1.45428019140248     -0.17399176795140
  C   3.43163322448209      1.87898213555279     -0.48173867686919
  H   0.60194807447407     -0.89987866135901     -0.53925650084320
  H   0.48889052849962     -3.18797582560753     -0.22479084637515
  H   2.28611261860943     -4.54458949671577      0.21902409601810
  H   4.44625509236543     -4.08328982027878      0.46647975069640
  H   8.62425083938426      0.29834541796907      0.69067787227718
  H   7.25803179409911      3.46495625168042      0.05176563535160
  H   3.21903076921643      2.92160601614450     -0.67131109966545
