22
Coordinates from ORCA-job 6523optt
  Br  2.22398055199371      0.62800537243655      2.22638533578164
  C   3.72413906774536      0.35006791022168      1.09234000585888
  C   4.37857968491524      1.34355762139766      0.46597836976726
  C   5.60013973001709      0.96904365742463     -0.26264602222202
  C   6.61010969024721      1.83994994054629     -0.47778400268635
  N   6.74057706303893      3.14365468892453      0.02991935997457
  C   5.82009815985494      3.89878879535215      0.70458625464601
  N   6.21542105325459      4.76493694193424      1.55881353277040
  N   4.47277454360645      3.80604295256764      0.32032792803878
  C   3.83480173400040      2.70543820403235      0.27430540819763
  C   2.45747016523678      2.80313969710414     -0.16857048782096
  C   1.33914491230067      2.86824194915581     -0.59309227542272
  C   5.68011245260039     -0.41266479363542     -0.75150979385011
  N   6.46908392346365     -0.83994232556250     -1.72223827935705
  C   4.92306812402065     -1.41067078781018     -0.03836697011330
  O   4.91744404621322     -2.60896989850373     -0.14119423163738
  O   4.06538639205610     -0.91347844065134      1.03761825030592
  H   7.48900745419201      1.51245922306053     -1.01387370361900
  H   7.68124234740968      3.42205077853559      0.26758051771669
  H   5.41984121628176      5.32714541726351      1.84685447850413
  H   0.34270373687913      2.91948749993737     -0.95964711546872
  H   6.89387395067182     -0.03628440373157     -2.18078655936432
