23
Coordinates from ORCA-job 6524optt
  Br  0.94345657539067     -0.19623287612166     -0.18646742293323
  C   2.81862074499209     -0.15390461112956      0.05659771510959
  C   3.58319174592967     -1.31744249931085      0.00864115661025
  C   3.24887715852652     -2.67971281703389     -0.10775848571996
  C   4.47489530311192     -3.35381655811666     -0.00077770252589
  N   4.60260289774358     -4.74425632167959     -0.07074034006580
  C   5.72197465058628     -5.50521245319315      0.16149275128972
  N   6.90425614015756     -5.14117597065908      0.43957863013987
  N   5.53225828253638     -2.55201960036712      0.17106838576944
  C   5.01021280391750     -1.29511101151389      0.17442264687076
  C   5.74508041982136     -0.10548327558578      0.37253418261026
  C   5.19312635968794      1.13008354182258      0.33460006787332
  N   5.95294521724343      2.31509508257560      0.46052593188097
  C   6.88452261332620      2.72031677483748     -0.43784351654381
  O   7.54306899306529      3.73320462111009     -0.33967457112981
  S   3.49536787993500      1.45110786716328      0.00387824060849
  H   2.26748603624797     -3.10773216361826     -0.23902651480911
  H   3.74763249377161     -5.24466019194699     -0.23759366469318
  H   5.49917417879847     -6.57175469408615      0.07867880814757
  H   6.94714905452708     -4.12095406101202      0.47404672793414
  H   6.80845316217342     -0.17978058771894      0.57616000728089
  H   5.75070795476065      2.96119055859549      1.21297524954847
  H   6.98893933374924      2.00825124698912     -1.27131828325296
