22
Coordinates from ORCA-job 6526optt
  Br  0.97653271518882     -0.33531437667704     -0.14736128805598
  C   2.82535864506365      0.11718576778077     -0.09801800811346
  C   3.14602676367856      1.45604708394634     -0.06464328167660
  C   2.26640299886251      2.63117974814827     -0.08543631583962
  C   2.55103400528103      3.49883098689520      0.90383070584658
  N   3.10857013819839      4.69373828236374      0.47946823733034
  C   4.31525061631495      4.45100806584773     -0.29419858423295
  N   4.88643176472405      5.41590176601758     -0.91205534601451
  N   4.90476219461743      3.20719402181644     -0.27987422024644
  C   4.50047787275566      1.97646408061393     -0.11488460334428
  S   5.89157186602638      0.87406328048382     -0.04012625240085
  C   5.18556553870356     -0.70464103940628     -0.00190044352774
  N   5.90110894726603     -1.77646171902229      0.06242233753378
  C   4.96192862668258     -2.85961759449719      0.04585194644496
  O   5.29253390357915     -4.03209159617600      0.10036242765105
  C   3.60980797610349     -2.31589973290523     -0.04016143366129
  C   3.73121731441071     -0.94465601678824     -0.06475535181263
  H   2.02281142236422      3.05399246175049     -1.05860445251115
  H   2.75747718660224      3.15441826581135      1.91627554960032
  H   3.20237580873240      5.46275656852525      1.12722554045304
  H   4.30586735657107      6.24807438003672     -0.83639302961533
  H   2.70888633827306     -2.90617268456536     -0.06302413380724
