29
Coordinates from ORCA-job 6530optt
  Br  1.18343634953663      0.08935948752247     -0.83387044502083
  C   2.99083425339502     -0.00543208523884     -0.25516135733419
  C   3.66459886625685     -1.24028761624437     -0.31237750183140
  C   2.93650227482653     -2.53393089953435     -0.06033243521550
  C   2.49090590615782     -2.63836650683045      1.40544911749551
  N   1.85782712119191     -3.91648696906818      1.66200651804938
  C   0.75904624390136     -4.09275592337854      2.43136858373868
  N   0.11819853066073     -5.16711867125520      2.69206029897101
  N   3.71152994169747     -3.73195019878563     -0.42233970018032
  C   5.06400163325616     -3.66620959234917      0.11323620919883
  C   5.80744181685575     -2.38166950610683     -0.23180521860857
  N   5.02326700938878     -1.22033640452814      0.13859638280159
  C   5.68743319450546     -0.01379794125478      0.29136970893757
  N   6.94471593099247      0.19331274787883      0.22441846814283
  O   4.92088103231475      1.04681315931774      0.60565222464830
  C   3.56335446507642      1.18891577943251      0.18753973844737
  O   3.10670823257273      2.31055725365938      0.28618847856009
  H   2.03232741575072     -2.54604593270404     -0.66864910778672
  H   1.77702425656889     -1.83512438170539      1.59384352465073
  H   3.34913031732672     -2.47528384580404      2.06526323641454
  H   2.23464160346505     -4.69518190214211      1.13900568628147
  H   0.39899771413758     -3.16252578830652      2.87381604639216
  H   0.54826658066033     -5.96672390368043      2.22537879475807
  H   3.76652682679454     -3.75768171857997     -1.43600470189442
  H   5.63362106369329     -4.52147888820724     -0.25553203053608
  H   5.00700293402255     -3.76002854799633      1.20090469723577
  H   6.04069275775245     -2.35832690986741     -1.30746283596497
  H   6.74213211560290     -2.37565704827173      0.32960279279585
  H   7.44895361163803     -0.64755724597111     -0.02316517314676
