26
Coordinates from ORCA-job 6532optt
  Br  1.05884695976943      0.00681380281446      0.61530145228148
  C   2.85536943459957     -0.07196054087590     -0.06162708656969
  C   3.53214314273900     -1.30081499633936     -0.11003026916578
  C   3.03755664361937     -2.61965426698862     -0.14657142172851
  C   4.14017831847092     -3.47281295867940     -0.30872488008238
  N   4.09250234580905     -4.88726608664846     -0.36558123049275
  C   3.27603319767051     -5.59051203966116     -1.22206401425875
  N   2.38319029108916     -5.14218161491840     -2.01480724387865
  N   3.51056144871242     -6.96661700356961     -1.16550658735608
  C   2.59823071758921     -7.80990664742638     -1.87265250956113
  C   2.78148093418819     -9.25073644663026     -1.52466301343529
  O   3.51801479071383     -9.66690400712661     -0.67083290186890
  C   5.32647492328635     -2.72522435091760     -0.35728862583016
  C   4.96974883401500     -1.38031929236316     -0.21757024864589
  N   5.84179959807222     -0.31661981759172     -0.15641157400537
  C   5.41113499755793      0.87018692462214     -0.00333494780331
  S   3.74295545845876      1.42117035136129      0.12768930648102
  H   2.00344910398715     -2.91231666762270     -0.04785887583888
  H   4.95917550401187     -5.34861102684950     -0.13752290863752
  H   2.39147262217305     -4.12498979184385     -2.00085956860332
  H   3.79769195519806     -7.33205950643176     -0.26872673462071
  H   2.71343051529272     -7.69553732509635     -2.95587503162206
  H   1.54263760061156     -7.55660067754418     -1.68238649800055
  H   2.15359737633229     -9.94732444094148     -2.11391459597448
  H   6.33159839674329     -3.10656478433090     -0.46627203711227
  H   6.11072488928897      1.69936321159960      0.06309204632995
