26
Coordinates from ORCA-job 6539optt
  Br  1.44730527075079      0.44986692701283     -2.07566502009039
  C   3.16761988701947      0.25400199638064     -1.17185018820561
  C   3.61538663282293     -1.00578437280883     -0.82193995563453
  C   2.84749397360695     -2.25977226403635     -1.10091870709496
  C   2.13709884277425     -2.84541919975420      0.13350117708604
  N   3.01616726043300     -2.98744785309405      1.30226046008785
  C   4.09259930199566     -3.87723636119621      1.21051824675794
  N   4.23115166154436     -4.94055132161296      1.91608319032079
  N   5.05722078568838     -3.54028660471159      0.28887771970063
  C   5.66909558711746     -2.22442792983242      0.16413600857883
  O   6.88982994489612     -2.21158252586332      0.39660106091437
  C   4.92821914261023     -1.06932430060305     -0.22826841907048
  C   5.60419681554047      0.18035069968733     -0.08023987235526
  C   5.00422202934421      1.34268989738310     -0.45842529821481
  N   3.76971208781469      1.41645657289748     -1.01585899191372
  C   0.99105219410912     -2.02680583252410      0.54141915822224
  C   0.04551808543529     -1.37948507161703      0.88946211193181
  H   3.52356734986042     -3.02248290535732     -1.48414622361391
  H   2.08193674520439     -2.08552465496382     -1.85411579775698
  H   1.73927784881840     -3.82813318696601     -0.16035705944850
  H   2.46954179325814     -3.17694373199258      2.13056861687197
  H   3.38520249740240     -5.12240734174759      2.44853021515630
  H   5.81188736769724     -4.21389592203533      0.33976449646522
  H   6.59833598413529      0.17825570804171      0.34272817893623
  H   5.51237994361629      2.29294511333463     -0.33041444004738
  H   -0.77801903349603     -0.76805553402091      1.16774933241632
