25
Coordinates from ORCA-job 6540optt
  Br  1.01215955884943     -0.17759892737973      1.37216378708356
  C   2.67344392235184     -0.02272495064182      0.41456387205927
  C   3.39686794790221      1.19201825614878      0.42119560935141
  C   2.87773009708610      2.50528737763501      0.68479508486304
  C   1.42808700667695      2.89401193705417      0.45106859016115
  N   0.86757539385021      2.40275486462541     -0.79165122339076
  C   1.19311374255588      2.98908428460146     -1.98040721803162
  N   1.04217211232083      2.54312503684505     -3.16288638804296
  N   3.61037469069613      3.53018778425257      1.02816737972033
  N   4.95251595411913      3.23417334098373      1.27367535895694
  C   5.54577187177676      2.26133685304587      0.49654221365808
  C   4.80908575145459      1.23089856506557      0.03780763260085
  C   5.44864470458257      0.21813247911612     -0.82998198563478
  N   6.51665242246371      0.36655556100985     -1.51002147800682
  S   4.70543153564533     -1.36959195137078     -0.91776825693380
  C   3.10907068237358     -1.27625766553208     -0.04446876066562
  O   2.55059362843453     -2.36583952526782      0.03030116724108
  H   1.40072088216087      3.98363367685571      0.43806198952428
  H   0.79861119848333      2.55690788619923      1.27100035115715
  H   0.66080131142522      1.41237540796374     -0.81339012716996
  H   1.60291174681304      3.99352606165731     -1.85531399793593
  H   0.67990232212381      1.58878959938527     -3.14860552380617
  H   5.47788987091715      4.08436712660821      1.39041557997264
  H   6.60873883952786      2.36420414662065      0.31970175497049
  H   6.85413280540888      1.32464277451849     -1.43896541170184
