24
Coordinates from ORCA-job 6543optt
  Br  0.93520956450331     -0.11796777630277      0.08414343955332
  C   2.84707037176798     -0.09345078576599      0.02583005256611
  C   3.54173291089912     -1.26418592649030      0.23313454307849
  C   2.94890066483744     -2.61646706578277      0.47317685036356
  C   3.10505060458667     -3.45657235674551     -0.79994682655996
  N   4.47512583023499     -3.44517166516194     -1.31014876132884
  C   5.57992686195374     -3.43154256087630     -0.43767590874651
  N   6.49263701912047     -4.30986600279664     -0.38297886079432
  O   5.68434086736137     -2.36071816876416      0.36152656485508
  C   4.93332999292770     -1.20223354787765      0.12700867923008
  N   5.62627106890931     -0.09538484624162     -0.11359326077581
  C   4.94719294532331      1.01335184847731     -0.29016113914959
  C   3.51851201468189      1.13192255900278     -0.25564035050077
  C   2.91898326824429      2.39800654065250     -0.50829835738634
  O   3.55651766521459      3.43944817378759     -0.77335601162077
  C   2.64963193535526     -4.84534555789927     -0.55985274268898
  N   2.31989061465773     -5.93212062472608     -0.39979560715613
  H   1.89256246788914     -2.56181071183751      0.72388819831429
  H   3.47142906597316     -3.11656811004459      1.29152067426301
  H   2.45471507736809     -3.03171268768791     -1.56873949465756
  H   4.61035373944846     -4.12723789768483     -2.04159118913943
  H   6.23971958124845     -5.11953345664468     -0.94025418116258
  H   5.50483424998531      1.92030389943469     -0.49157867278589
  H   1.81906161750821      2.43085672797569     -0.46261763777048
