29
Coordinates from ORCA-job 6546optt
  Br  1.75311189305489     -1.42395364924466     -2.37581903823309
  C   2.68374754833119     -0.33110966423196     -1.09965536466002
  C   2.84104615494477      1.01085870095395     -1.32046962014948
  C   2.26794284841943      1.76754546977783     -2.48700962648383
  C   0.97053359043104      2.50019742400598     -2.09226320069284
  N   1.12988524912355      3.40245925766215     -0.95669385447281
  C   1.05785573415128      2.89977224653889      0.33474541151265
  N   0.37413301411932      1.94134226140105      0.79653505694139
  O   1.81661308920966      3.67794752936727      1.15504114637987
  C   2.42169021698635      3.02471508203066      2.27115046297679
  C   3.76351411280553      2.37445708307309      1.90681247998634
  C   3.60310564214046      1.32087296743490      0.84277791357719
  C   3.48610689801906     -0.00605643585780      1.14035760590718
  C   3.11588902177475     -0.94757331541151      0.12063894748592
  C   3.11397511953310     -2.32285578797774      0.36117044582031
  C   3.12009663608180     -3.51133680208939      0.61849908354447
  N   3.42914881568733      1.83164401255460     -0.40632905535891
  H   2.05791590617874      1.12519221147472     -3.34112171670518
  H   3.00641811392354      2.51637832900868     -2.78886434500810
  H   0.19379658874722      1.77040807775253     -1.86235749969349
  H   0.61183411692976      3.08404033945620     -2.94423988438045
  H   1.99716404362754      3.92079197852235     -1.02942524524763
  H   -0.09972092036682      1.42353638493404      0.06668565281259
  H   2.57344928307077      3.80947858684167      3.01476857203887
  H   1.73242929209638      2.27866558493997      2.66568546596695
  H   4.17430933281163      1.94524571638007      2.82520589728600
  H   4.44506644424687      3.14951357618718      1.54597856686897
  H   3.62936957760876     -0.36009577871026      2.15470412364700
  H   3.11157263631206     -4.55108138677451      0.83149161833335
