27
Coordinates from ORCA-job 6549optt
  Br  1.45150994557796      0.28899630419932      2.76388465841553
  C   1.70780719031163      1.01396024252115      0.34695233452874
  C   2.95683166489433      1.55854259676399      0.11493373033774
  C   3.32445489973811      2.73632226811673      0.96703379081895
  C   2.23577206486820      3.82606268783953      0.76912186560748
  N   0.97002022240075      3.59793490502402      1.44538045851889
  C   -0.16533122145922      2.98234456068979      0.98731956469005
  N   -1.12378114940823      2.72959019540704      1.76911633225499
  O   -0.15253114665220      2.78184548795420     -0.38506631346266
  C   -0.88506051033958      1.71867466793410     -0.92951070674710
  O   -0.34203150480702      0.43098632284097     -0.70329344436725
  C   1.05505947092278      0.43660332748234     -0.71097287199922
  C   1.77850324262291      0.08339943598757     -1.84414413055366
  N   3.06376331898567      0.40243997877299     -1.99541589537572
  C   3.60394249570959      1.19285428408065     -1.06022361770715
  C   -0.88022015813212      1.99657872477576     -2.42603873815388
  O   -1.88142807571086      2.09625039039063     -3.07796434043856
  H   4.28998283046783      3.15508952202178      0.67017744204296
  H   3.36404113465848      2.45180305039694      2.02129849128740
  H   2.03616444917021      3.94496252978553     -0.29537813124359
  H   2.62344067566005      4.78014690244740      1.13752166300178
  H   1.03075726798851      3.46836081708336      2.44615730174512
  H   -1.89136366329469      2.24734287587448      1.32173773993524
  H   -1.91415332922044      1.68396962102631     -0.57121577644481
  H   1.29017055484190     -0.43687439670950     -2.66512558519574
  H   4.59850460834179      1.57706721699235     -1.27676960731724
  H   0.12617472186355      2.07874548030043     -2.87451621417828
