19
Coordinates from ORCA-job 654optt
  C   0.99930748460822      0.15666610637831      0.92143464870674
  C   2.46179403847248      0.02231869492675      0.61425672984272
  C   3.25634782866629      1.12336108936042      0.32008352529243
  C   4.65373795412469      1.16632618628552      0.13884404731366
  C   5.38610821458526     -0.13184867140993      0.35539687585973
  C   5.34520198091838      2.29982884110667     -0.30460352167654
  C   6.84040909224177      2.43110580442389     -0.31944140016898
  H   0.77296256911330      0.28907105980719      1.99589588297696
  H   0.41956726657481     -0.71400352109191      0.59465257706551
  H   0.57653240687740      1.02996745657411      0.41328026423538
  H   2.91994513801921     -0.93937126600427      0.82184317921128
  H   2.73337283441099      2.06911192979098      0.16007402944568
  H   5.05116068417816     -0.89363353640073     -0.36456825096248
  H   5.17545167223215     -0.54350597763437      1.34950722246921
  H   6.46641239960059     -0.02345998142115      0.25395075340567
  H   4.77683433992026      3.21645061867688     -0.43174695874300
  H   7.34449985078239      1.70893761860453     -0.97668266967461
  H   7.31284054815953      2.30464970918768      0.67387184921990
  H   7.13051369651400      3.42302783883941     -0.67604878381925
