27
Coordinates from ORCA-job 6555optt
  Br  2.00885188926485     -0.67548517822830      1.09704404622050
  C   3.75886273054353     -0.01592413075558      0.50881373998815
  C   3.83595133768121      1.23449725287110     -0.06333425516928
  C   2.68765312660284      2.15696216817501     -0.31189805079736
  C   2.81533023417425      3.46570615549058      0.46450321831853
  N   3.80601978636600      4.39990872367117     -0.02575662589196
  C   4.94992385705112      4.08854048905370     -0.45739911592992
  O   5.59876441909558      2.93262449230644     -0.66528399339181
  C   5.13882657218747      1.60834160261423     -0.53143188519632
  C   6.18679092327330      0.67232829123174     -0.34628655471021
  N   7.48020652172260      0.98990510544368     -0.81596946844265
  C   8.60880220405183      0.30451564057032     -0.51263624191860
  O   9.70891335008723      0.63791532789978     -0.92458495394188
  C   8.40263236521831     -0.87514582164267      0.41751040869932
  C   7.05034580506379     -1.56114679132448      0.24301421586317
  C   5.94205082701647     -0.54937761328864      0.21146639046519
  N   4.71036530856045     -0.91597703428284      0.68516826742996
  H   1.75169632962670      1.67595685918657     -0.03529369183687
  H   2.63656578275403      2.40079193956489     -1.38121508375176
  H   3.03323432188939      3.22385337917384      1.51246756861286
  H   1.85682836207161      3.99052326203328      0.45350349172024
  H   5.61363703528768      4.89195879863598     -0.77100338389289
  H   7.58935298138963      1.84448640031072     -1.34181714436667
  H   8.47155355800655     -0.46560053555755      1.43122236036219
  H   9.24367880013891     -1.55213291002153      0.27469396229307
  H   6.86514888977256     -2.26264896689481      1.05699479353648
  H   7.04801268110198     -2.14637690623664     -0.68649201427150
