27
Coordinates from ORCA-job 6556optt
  Br  1.00978405828819     -0.17395639378067      0.05559844549908
  C   2.91650251319094     -0.03118869308822      0.02974584094732
  C   3.55247796330119      1.18782950349870     -0.08586358265678
  C   2.81205384721846      2.48773789956873     -0.21386098826745
  C   3.67339504114354      3.62889889267813      0.34199195819155
  N   4.93483712874971      3.64172844752058     -0.37848883948568
  C   5.71192154690277      2.44763314068470     -0.28479516585344
  O   6.95274020259923      2.55983301079015     -0.36313203330756
  C   4.99599981472375      1.23115900101044     -0.12253896973609
  C   5.72646771817682     -0.00310951460568     -0.02963754960465
  C   5.04458740591482     -1.17948214082507      0.08325892357465
  C   3.64521863583148     -1.21421818378365      0.10976271732361
  O   3.13739066092872     -2.49590487127294      0.24466535553311
  C   4.21359114305480     -3.36135652284733     -0.11312260908822
  C   5.50850557975463     -2.61022743988142      0.23058534964364
  C   2.99604378455269      4.92122795866420      0.21268470411921
  C   2.43586467726874      5.97733990426308      0.11365813001014
  H   1.86009267545124      2.45776187738058      0.31613070702209
  H   2.60237718309873      2.71737538811118     -1.26420284773163
  H   3.82313199493329      3.43641243169528      1.41624588809948
  H   5.52536234619552      4.43345124550464     -0.15872913913912
  H   6.80704862150828      0.04137117116653     -0.06461321596656
  H   4.16603148956118     -3.54881545869543     -1.19243931160340
  H   4.08189070787050     -4.30057089454477      0.42267518420614
  H   6.32922514873997     -2.87535832504446     -0.43568596212529
  H   5.82055693350092     -2.81257744563134      1.25940097550935
  H   1.94390117753981      6.91400601146405      0.01570603488648
