26
Coordinates from ORCA-job 6559optt
  Br  1.09745500299392      0.23180740637005     -0.02311304750689
  C   3.00906799879162      0.10846859502621     -0.03606640595790
  C   3.63733075366452     -1.11332616662999      0.05996138706523
  C   2.82335107229341     -2.37954874526096      0.16018832896554
  C   3.62855441230742     -3.57909584778065     -0.28892787610967
  N   4.86651963869759     -3.59243852218647      0.45245411806771
  C   5.69076568828135     -2.46316714341215      0.41004931374643
  O   6.88501348760557     -2.62083652591518      0.65214392178156
  C   5.05384805019407     -1.18460563405827      0.11497169271219
  C   5.82457139836915      0.03495682983204     -0.02315323181979
  C   7.26082629246375      0.14437734836544     -0.08935161022533
  O   7.85453432976190      1.22941144374731     -0.20327981754491
  C   5.11191740849929      1.25245988576435     -0.15921780018368
  C   3.75123826764519      1.32446618746263     -0.13464733480120
  N   3.07219842649641      2.55879748865706     -0.21421833807530
  C   3.46714034010022      3.71470669664102      0.36464972779763
  O   2.87034070240399      4.76742711438133      0.26186095514758
  H   1.92244083387745     -2.29278870894740     -0.44573517938703
  H   2.50466211800768     -2.52209930008744      1.19823044129926
  H   3.80143853943144     -3.51233338297638     -1.37280385170118
  H   3.08090204711252     -4.50170611804129     -0.08998162257917
  H   5.42573595289190     -4.43118505292969      0.40268873373719
  H   7.82963415725861     -0.78663351035941     -0.04152831939841
  H   5.70742638791259      2.14561931633013     -0.30125035006005
  H   2.16812131840307      2.58273843224202     -0.66532845494444
  H   4.39196537453524      3.60652791376570      0.94940461997463
