23
Coordinates from ORCA-job 6560optt
  Br  1.57611119087347     -0.62582413304061      1.51212496523263
  C   3.28811846862268     -0.24922709510666      0.65065676457607
  C   3.69471007966508      1.05080767789457      0.53409590004148
  C   2.90788051354969      2.24776386396777      0.97541205583486
  C   3.10127561898712      3.46998069889959      0.06578269938579
  N   4.37748032504729      4.16331111010637      0.18703507910140
  C   5.48539527358474      3.55874785479864      0.29983958073927
  O   5.82969749313007      2.28093925483519      0.27369136660590
  C   4.93882831126067      1.24684838360865     -0.15171876286943
  C   5.61658135077544      0.10550260744107     -0.66253692544110
  C   5.02946025558105     -1.10880031171241     -0.47189214846752
  O   5.50822175361443     -2.30698658453139     -1.02991410586842
  C   6.74232048501312     -2.49890969713409     -1.46437228867281
  O   7.65932709945761     -1.72809057988565     -1.48967718696028
  N   3.89351965661195     -1.34810887062559      0.20764110025129
  C   2.79261441413675      3.17127269693729     -1.34635274304225
  N   2.50301433800617      3.00251397361038     -2.44316097196786
  H   3.19917632258735      2.57216426178726      1.98035550663834
  H   1.84559871993726      2.00815614220022      1.01360740077749
  H   2.34413058755586      4.20265506955050      0.35985657294410
  H   6.37253042288050      4.16844538893609      0.45948894606638
  H   6.54959070985096      0.21339187531078     -1.18930950213443
  H   6.81841660927057     -3.53455358784800     -1.82465330277087
