27
Coordinates from ORCA-job 6563optt
  Br  0.85390473703795      0.04615314842345     -0.06872842745404
  C   2.77144498981946      0.04764932000608      0.03802773110826
  C   3.46681819618583     -1.12177696848126      0.13439463900880
  C   2.83805819952447     -2.48557372542276      0.18140418421624
  C   3.80322638454720     -3.52559023871956     -0.36417529729893
  N   5.04716676702883     -3.43833687625619      0.37311119106579
  C   5.72538281272752     -2.19271962268721      0.36857503093077
  O   6.95327660461042     -2.19910456789815      0.50670676276956
  C   4.89999044593608     -1.02314125058009      0.22002330017973
  N   5.52939464798357      0.19695939838683      0.19430885155943
  C   4.79720779816933      1.28946290448928      0.09625927699578
  C   3.40174839582195      1.31157411631130      0.01816317563361
  C   5.57283880565520      2.54051633498600      0.07302997268497
  C   5.24825120742112      3.87732075719753     -0.03721044646174
  C   6.46373389902728      4.60885290558519     -0.00314132278533
  C   7.48542687721699      3.69479483959252      0.12681211270703
  N   6.92697091264716      2.45655295008031      0.17071012612033
  H   1.90709307653691     -2.49960854099182     -0.38608490781150
  H   2.59655970617548     -2.74187295033112      1.21887670965168
  H   3.94828847156559     -3.34394152498743     -1.43970444605161
  H   3.38603698560095     -4.52776772538534     -0.24391729981049
  H   5.71638480820705     -4.16990556789363      0.17824856499743
  H   2.84201670747174      2.23082499012997     -0.04926426468352
  H   4.25240307312276      4.27790175114231     -0.13288193281574
  H   6.58059478531641      5.67867908909020     -0.06632574094652
  H   8.55122509151823      3.83423959371541      0.19065608419596
  H   7.36255561312449      1.54685746049818      0.25712637229406
