20
Coordinates from ORCA-job 6566optt
  Br  1.22752570173674     -0.19681434054360      0.17458619727855
  C   3.13954167641297     -0.15311889373934      0.10767785567787
  C   3.77774616343709      1.06889413066717      0.05740435191936
  C   3.35797092639368      2.51583977943654      0.03997539815375
  C   2.52998682754338      2.88334773988119     -1.10238001561756
  N   1.88884773240111      3.17401496272454     -2.00804972274867
  C   4.73934490797257      3.31753045842586      0.02062868743094
  O   4.77162654143687      4.53175190620437      0.01835763500452
  C   5.77057094935856      2.31737445362165      0.03717169829223
  C   7.18650930715646      2.29024700545322      0.05350556921187
  Br  8.14339877001246      3.94483560821064      0.03510173610601
  N   7.89485953871337      1.20011415898946      0.08070612916641
  C   7.30525655943679     -0.01462619215548      0.09840759905540
  C   5.89170791746469     -0.16304276168439      0.09071154045309
  C   5.10273699074802     -1.32614568050100      0.11792520103715
  N   3.76471927601440     -1.31385148239079      0.13114856448486
  C   5.16823972062681      1.03725243349305      0.05707115692870
  H   2.82637607755842      2.80342599661904      0.95101961073131
  H   7.96386510971509     -0.87350793705769      0.12088091624547
  H   5.56716930586051     -2.30652134565446      0.13814989118875
