22
Coordinates from ORCA-job 6570optt
  Br  1.03419300328348      0.29943907680760      0.44545961375076
  C   2.91466048141040      0.12840798956722      0.18899913106160
  C   3.48154569504911     -1.13383494443219      0.06434688292457
  C   2.66470655658046     -2.41317113539988      0.06775130735856
  C   1.91971557429076     -2.53603363482616     -1.20036660557951
  N   1.35893429700241     -2.61499296444560     -2.19837607686203
  C   3.46359048674051     -3.71916555406032      0.31432351036698
  O   2.82469007690958     -4.73060227096605      0.64389983001292
  C   4.85605044627456     -3.63169086458994      0.09336125286447
  N   5.81027666525372     -4.58827417058755      0.11392168023471
  C   6.92754035059122     -3.90574902523654     -0.15686721935419
  N   6.81822576527519     -2.60181343270680     -0.34656689708935
  N   5.47141004964765     -2.41709634171682     -0.19088943089711
  C   4.87961713023984     -1.18723455407037     -0.11921173473813
  C   5.64444093637253     -0.01692435010132     -0.18706973226965
  C   5.02594758382097      1.20916025013269     -0.06717024314969
  C   3.65134464809491      1.30148947571191      0.12989312695625
  H   1.90972043161944     -2.37174042126477      0.85730545535844
  H   7.89556765565726     -4.38086354700249     -0.23056863712210
  H   6.71114351906896     -0.11084825106074     -0.32650460946215
  H   5.61743934457128      2.11504051008446     -0.11701904764896
  H   3.15923930224573      2.25749816016369      0.23134844328363
