25
Coordinates from ORCA-job 6574optt
  Br  0.99476246319414     -0.15911222133627     -0.38420237316970
  C   2.90240372806214     -0.13865020259403     -0.15582230813982
  C   3.57075946983586     -1.32775953800232      0.21756884270645
  C   2.92605128333514     -2.64461525745093      0.48363743539290
  C   3.14789433437371     -3.64371986276682     -0.66531828181932
  N   4.53450308084089     -4.00368217935770     -0.90798686596105
  C   5.73032381774442     -3.55554410611834     -0.39982243815061
  O   6.75412564386561     -4.07294790053811     -0.80113453827880
  C   5.76839230554743     -2.45426164261018      0.64037768849809
  C   4.97592288187246     -1.21184300771827      0.29503585038010
  N   5.66513855073924     -0.11831257036956      0.09595988803924
  C   4.98791082813123      1.03509157895125     -0.22264028248537
  C   5.73225433490759      2.23242018574127     -0.41392297206728
  O   5.25295850269730      3.34448411213816     -0.70108121219690
  C   3.56721115001163      1.02466792423350     -0.37312935466656
  C   2.37992114494707     -4.87915939959756     -0.39585984590439
  N   1.77104615505816     -5.82548422071998     -0.17490678051424
  H   1.84859715644288     -2.53354501120039      0.59455276407522
  H   3.29239276838689     -3.10592790058964      1.40569329268379
  H   2.72145069303503     -3.19604421107119     -1.56912312502348
  H   4.68462574995892     -4.70731542720471     -1.61711297279033
  H   6.81404772183314     -2.18238272649921      0.74762593170422
  H   5.42223839254805     -2.87737897012865      1.58857898642440
  H   6.82143984447063      2.10388286925712     -0.28349454682153
  H   3.06862799816034      1.94013968555258     -0.65747278191502
