25
Coordinates from ORCA-job 6575optt
  Br  1.52943173080553     -1.83774686492081     -1.25950446835553
  C   2.94155491907933     -0.60963610404439     -0.65545368572899
  C   2.66526454976889      0.76407255947171     -0.68009464365920
  C   1.43375438859224      1.40155164598059     -1.23655424091001
  C   0.35806486255135      1.84421928906502     -0.19642029887686
  N   0.32275209446970      3.28986167040328     -0.00945438459359
  C   1.29792830352875      3.82594365623403      0.58147826355420
  O   2.34655088267293      3.16029883215113      1.12854855250631
  C   3.50389655357699      2.96509201510914      0.26838079000243
  C   3.70061223104723      1.50548652209907     -0.01145055229073
  N   4.82080461739157      0.98581888422686      0.40608009054176
  C   5.01768041317143     -0.34790167527898      0.21139744031356
  N   4.00973857732671     -1.19164289082950     -0.25427872903094
  C   6.25505702587878     -0.91301924632357      0.56268072635609
  C   7.32380234694132     -1.40063336096564      0.86408837635514
  C   1.35244292814996      5.26430192183876      0.75027936526093
  C   1.44726443444541      6.44952145207979      0.90218053934924
  H   0.96578943158379      0.70217680247588     -1.92650193367876
  H   1.68848558445358      2.28499742860139     -1.83136283817787
  H   0.55949277267463      1.33741412724918      0.74963566996930
  H   -0.63056608789957      1.54772135629036     -0.54349852723968
  H   4.37646631706429      3.34311390293210      0.79589392029882
  H   3.34959591264637      3.54384988521063     -0.64762850855949
  H   8.25861819234780     -1.82725282054262      1.13038070289955
  H   1.52251701773093      7.50139101148655      1.03517837369432
