27
Coordinates from ORCA-job 6576optt
  Br  1.51925967969527      1.53144251836585     -2.58639658748560
  C   2.61599613266982      1.02534534745599     -1.06909244061304
  C   3.56283621061537      1.90105706034899     -0.51998941776756
  C   3.11186813258162      3.25901620476082     -0.07175889836483
  C   2.00957149531269      3.09028019617574      1.01534249342828
  N   0.69083354410197      3.07652162487254      0.42241123406446
  C   -0.14931878988580      2.21578873773390      0.09413159178409
  O   -0.33421350121168      0.87679945061495      0.17625797545753
  C   0.55551390813588     -0.09008951806462      0.74215909692166
  C   1.24498791790881     -0.94516023092428     -0.33763195812009
  C   2.58377321642048     -0.33719224926463     -0.63953007287693
  C   3.71108935269100     -0.80941114969336     -0.08387040970195
  O   4.86166023963953     -0.06301416614317     -0.06985753234126
  C   4.69686871288908      1.33011089194841      0.11090573945404
  N   5.58078882371234      1.94954710483800      0.81861778575490
  C   -1.35351524815132      2.73997281197152     -0.57263581937785
  N   -2.29370428254827      3.17179265142302     -1.06636778550905
  H   2.69454329230065      3.85244776775771     -0.88880703647123
  H   3.95312046982730      3.79774817610401      0.36223557435105
  H   2.01931173222245      3.96184941225131      1.67333679642828
  H   2.25157103877975      2.20977687075642      1.61373398869627
  H   -0.08972838310179     -0.71284147746929      1.36534359531839
  H   1.29954395462812      0.39257451667484      1.37210649267657
  H   0.59644611829096     -0.97494587113743     -1.21617338129085
  H   1.35878855329894     -1.96617493680649      0.03682057861231
  H   3.79191335148727     -1.74618141847032      0.45643566471140
  H   6.25419432768952      1.27293967391954      1.16727273226101
