25
Coordinates from ORCA-job 6577optt
  Br  1.12185704604129     -0.02795780578421      0.50470332665624
  C   3.01113407553337      0.08490114917624     -0.51130384291104
  C   3.61822139875586     -1.15872803867658     -0.72270327088889
  C   2.84680270475262     -2.33811191320497     -1.22147577094954
  C   2.30762610905718     -3.26119383650066     -0.10539853353224
  N   3.09029106786853     -3.28539191980476      1.12481251401579
  C   4.41763454955122     -3.44939664555142      1.30071643628758
  O   4.95632473076174     -3.34581131754924      2.38403642934016
  C   5.30093282160559     -3.76988522707632      0.08055268712114
  C   5.76054631132296     -2.48707085517029     -0.69498329563002
  C   4.96716167922141     -1.22534150167172     -0.41761536427280
  N   5.68530184645120     -0.23656779892541      0.12066935012661
  C   5.09156463738559      0.94272037714066      0.37057133368437
  O   5.56896974353896      1.91426427040695      0.89104135997618
  O   3.73082188626216      1.09841738980304     -0.06295926015054
  C   4.74366470568072     -4.79916173040478     -0.79590620027790
  N   4.34717215285823     -5.62036933949561     -1.49193106640535
  H   3.46123623619311     -2.92222101049962     -1.90997963026961
  H   1.98549697779891     -1.99209896890107     -1.79516473465793
  H   2.18718938288655     -4.27397374963731     -0.49308533261118
  H   1.32917389651355     -2.89619543758031      0.19603199633026
  H   2.64358318023103     -2.90081012475606      1.94499709464561
  H   6.18698609415226     -4.21819441896795      0.52895404476154
  H   5.74946323060771     -2.70699840410166     -1.76415348189043
  H   6.78484353496813     -2.27182314226685     -0.40342678849802
