22
Coordinates from ORCA-job 6578optt
  Br  3.46374215286727     -0.23325065055611      3.37547852044087
  C   3.52145363884582     -0.07106787411966      1.50060821590551
  C   2.77104220080930      0.89872670008608      0.85024438900909
  C   1.94895540687631      1.90081878568410      1.45161770334117
  C   0.89920478635244      2.39183077068316      0.67005541520558
  N   0.61401579425933      3.68612011159896      0.43668890115101
  C   0.33413299154513      4.04067374229606     -0.78742864156460
  O   0.40579858091850      3.24639941179712     -1.94780370523664
  C   1.30607527621278      2.20873151114000     -1.98068326779735
  C   2.43228180111874      2.18468335698028     -1.27840459670084
  C   2.99659874691042      0.97355478466013     -0.62124576402108
  N   3.71950470094587      0.13666756745225     -1.27705689037898
  N   4.25715630513860     -0.88102028189053     -0.58281999347897
  C   4.29518872777520     -1.05104054736256      0.79725935992738
  O   4.92725342484854     -1.99212074523078      1.26328665512321
  C   -0.07098789138388      5.36484557745700     -1.10013701541695
  N   -0.41033014338788      6.43506423007723     -1.36586684234242
  H   2.27871000213664      2.38852734619940      2.36206328678458
  H   0.43143337500117      1.65951248091447      0.02150682840584
  H   0.88192203743624      1.33577880615191     -2.46286230202647
  H   2.73190472294603      3.11317932838904     -0.80559172717434
  H   4.83694336182736     -1.50961441240762     -1.11490852915559
