30
Coordinates from ORCA-job 6579optt
  Br  1.47070746554236     -1.38477602931645      2.13786716360472
  C   1.82411549221177     -1.16748227519415      0.22333126132528
  C   2.95176231620645     -1.72966349986589     -0.32791885147673
  C   3.58203303962490     -2.96856014379362      0.24062012905614
  C   2.78300440520781     -4.16589561543211     -0.31556334038818
  N   1.44722283238985     -4.31630498922950      0.23608287452477
  C   0.26822217901058     -3.73256305251157     -0.12940123569436
  O   -0.71000439503821     -3.83973451903629      0.59356485282844
  C   0.14722870165409     -3.04949170217163     -1.48017322516167
  C   -0.91542754512212     -1.93064102083322     -1.44288526459984
  C   -0.54610344434029     -0.72164506774244     -0.50432362247314
  C   0.91313672931423     -0.37658231670674     -0.54988903370593
  C   1.50252767338023      0.10079327905318     -1.75768825110542
  C   2.70041504134315     -0.39840648974851     -2.18908175861541
  N   3.38114250397221     -1.40891764845455     -1.56606775051683
  C   -1.17673946703434     -1.47323845177298     -2.80687588655569
  C   -1.40127804818874     -1.08920346324672     -3.92235957550066
  H   3.57554821661055     -2.99181453128831      1.32988263823663
  H   4.60939822466908     -3.04865358796863     -0.11860917720290
  H   3.31797306676960     -5.09755022705590     -0.11446871288375
  H   2.71605321177290     -4.05833696177830     -1.39812237260183
  H   1.39875214336108     -4.63935518809798      1.19250470945194
  H   -0.18856608902682     -3.81763133490548     -2.18446870604506
  H   1.09413480710994     -2.65904827116255     -1.84983742392049
  H   -1.83938584740950     -2.37270300352898     -1.06147214100277
  H   -0.83176323968286     -1.00989819358136      0.50879568723573
  H   -1.17419181633748      0.12117607575911     -0.80531948534903
  H   0.95859623658268      0.80339756586775     -2.38558143739842
  H   3.13927988628859     -0.03911142752849     -3.11547628508510
  H   -1.57979428084174     -0.74115790872761     -4.91006577898045
