27
Coordinates from ORCA-job 6580optt
  Br  2.49357962034395     -1.51628209972940     -1.66090678969514
  C   3.17406453414604     -0.01883171362018     -0.68022459493755
  C   3.21659875239739      1.24938314219557     -1.15492277289182
  C   2.63141607638946      1.69458959207956     -2.46619722443441
  C   1.36417369963210      2.54182519993120     -2.19591774248044
  N   0.48026554254568      1.80985114968494     -1.30532609292167
  C   0.38765098428089      2.11243129885971     -0.09291806266081
  O   0.88369797795360      3.23395808730636      0.49667097059998
  C   1.22080043638855      3.15299779525469      1.87887565680720
  C   2.76229260706959      3.03758169742405      2.06535243405451
  C   3.28097135082922      1.95818028340153      1.17603825519555
  C   3.50425240797087      2.24563069837612     -0.18788896022531
  C   3.13369923596323      0.63125857645603      1.60440378029816
  O   2.79246025642078      0.18692477356679      2.69145923254912
  O   3.47423416819588     -0.34260356528212      0.59671216842471
  C   0.73011027800011      4.42063330093179      2.51741209647528
  O   0.53010390811841      4.56146289262169      3.69388726356728
  H   2.37501493844354      0.83791379374898     -3.08764538316250
  H   3.34071634529169      2.31643390047611     -3.02108748741147
  H   0.83777650696979      2.70839908863449     -3.13874930930182
  H   1.65730729491666      3.51205186110501     -1.78802740492274
  H   -0.17154839099429      1.46921385665358      0.58821590651640
  H   0.75501690100767      2.28153706675846      2.34794697990577
  H   3.21596794129170      3.99978333898663      1.80632176889174
  H   2.93946950028474      2.83736874976481      3.12323808303658
  H   3.58248490783010      3.27887247624955     -0.50593575093836
  H   0.61142221831257      5.26543475816400      1.80821297966175
