28
Coordinates from ORCA-job 6581optt
  Br  2.94217382455022      2.50949544773507      1.11670406139256
  C   4.24956473469707      1.38609181695099      0.11430089085928
  C   5.61744727533729      1.75870268592701      0.17138259769788
  C   6.55921593393179      0.71503978463615      0.28346165712667
  C   8.04031192124463      0.93304285925162      0.03967878158468
  N   8.31826528387798      1.46304162146662     -1.28366868627051
  C   8.82890525503375      2.66763546529401     -1.64599585702347
  O   8.92002178965939      2.98072927868795     -2.82112706926408
  C   9.28831852809927      3.62186603554485     -0.56032651719240
  C   8.15853185198590      4.51708926427306     -0.03270087558276
  C   7.08802325931801      3.80499180946042      0.79587284005594
  C   5.96033707399640      3.16466963513603     -0.02759984084351
  O   5.30561748458548      3.91547228956541     -0.72910739411489
  C   6.15061274545966     -0.58652895593684      0.45433491435858
  C   4.75744659501873     -0.93386252823449      0.50199932080982
  N   4.21686539353966     -2.07304751694026      0.70211400933496
  O   3.87391501371153      0.08441789195274      0.22764417257956
  H   8.54379758984977     -0.03066257309957      0.14597551592360
  H   8.48090667478414      1.59799242070238      0.77502246005860
  H   7.92384155865871      0.94923166793654     -2.06002622801206
  H   10.04359843830404      4.24574653660915     -1.03653599132721
  H   9.76577005519500      3.09339406258737      0.26736167472578
  H   8.62076226563848      5.29669074313593      0.57731657390081
  H   7.66751234808894      5.01559378529004     -0.87134157972205
  H   7.52322257223969      3.11676646448273      1.51933782029924
  H   6.55175363004585      4.55892825757692      1.37832221673237
  H   6.86502552882771     -1.39776603104529      0.49236654110676
  H   4.95323537432075     -2.75176221894662      0.87523399080586
