24
Coordinates from ORCA-job 6588optt
  Br  2.85955567206704     -1.67217668838428      2.48326771307027
  C   3.10781463376504     -0.75920587626198      0.80431673249050
  C   2.42551747872664      0.46607116730741      0.58618317479295
  C   1.25759975741738      0.97124074548985      1.06122523190405
  C   0.96613499927234      2.24704359664162      0.34697958825753
  N   0.74942775607205      3.41402302465155      1.17613201088532
  C   0.71558690007078      4.65457706679958      0.58555209558882
  O   0.21030854313483      5.62369815224623      1.14454369063225
  C   1.43576588766544      4.70274112774540     -0.68207905637138
  C   2.26612544017731      3.68163223243751     -1.05175168648175
  N   2.17254779951087      2.46876577569290     -0.46784320480618
  C   3.03314134619375      1.37052692453994     -0.36588765656278
  C   4.29663256992992      1.07891443119617     -0.90361022653723
  C   5.06417618154472      1.81219091877397     -1.90786871285407
  O   4.73674911029438      2.80301867555443     -2.53066431231944
  N   4.98623396414884     -0.02051377115130     -0.53804512943448
  N   4.40828663462112     -0.82640689044730      0.32789481463687
  H   0.57360165172222      0.49032607600750      1.74143904016465
  H   0.12149626035785      2.17642618021550     -0.36494588492606
  H   0.32907962811849      3.30884264463156      2.08478902033846
  H   1.49123214177602      5.65681694889062     -1.18162086146682
  H   3.03595471854107      3.79107841635741     -1.80189608422691
  H   6.04759999580730      1.33988098356369     -2.07993327555982
  H   4.92243092906451     -1.67651186249803      0.49782297878525
