26
Coordinates from ORCA-job 6589optt
  Br  3.00801844619871     -0.77435306856168      2.21540340758455
  C   4.43292309705713     -1.20174209585947      0.94717987583711
  C   5.78904565018110     -0.86396096405766      1.25620404956570
  C   6.50295398067146     -0.19106677715742      0.24867829438467
  C   6.09042948900687     -0.14561596416977     -1.04096252133029
  N   6.94478274828675      0.16006149197980     -2.12025381697301
  C   8.26028950290368     -0.15688994979207     -2.29152638327781
  O   8.77887488198072     -0.01567881942819     -3.38956065798967
  C   9.16250088216151     -0.54731105760624     -1.11197245252393
  C   8.82089928356666     -1.66891461568804     -0.09376204847773
  N   8.88349959682328     -1.15091514801859      1.28094243671702
  C   8.02578170726497     -1.76267851836760      2.29540301877051
  C   6.48921538745849     -1.51417504830210      2.33556226604775
  O   5.93333319888147     -2.08114445592785      3.26968545557127
  C   4.75922115031504     -0.57414710581263     -1.37823287579633
  O   4.28867468006774     -0.58185819218345     -2.49524948224508
  O   3.96910044590905     -0.95305368802237     -0.32979885010783
  H   7.47628873696333      0.19023262468820      0.50189062709630
  H   6.47001593256112      0.36103133526009     -2.99192367623602
  H   9.31432794266373      0.37003923242278     -0.53661575672486
  H   10.11074109946915     -0.76501494509988     -1.59961970108287
  H   9.52658877063467     -2.49420123381798     -0.23895147590151
  H   7.83092100331018     -2.08369988312703     -0.26686761844163
  H   9.84028259199497     -1.16427565354156      1.60605479637453
  H   8.39683134099716     -1.44182342839822      3.27019900113008
  H   8.08845845267078     -2.86084407141101      2.29009408802910
