24
Coordinates from ORCA-job 6591optt
  Br  1.34926757471359      0.60995330321872      1.31929795858332
  C   3.04821297938943      0.07737482588393     -0.18316390639741
  C   3.66673885726409     -1.16236017147422     -0.09202162514969
  C   3.01624178795416     -2.44047762720765     -0.08525269854074
  C   1.50935472541411     -2.53459399212009     -0.15449462475297
  N   0.91073124953215     -2.66665731450637      1.15967165781130
  C   0.65714968576170     -3.85743606088293      1.72026958738736
  O   0.84165250093576     -4.94246514272656      1.20070866759484
  C   3.75856820591221     -3.56277665331819     -0.00789937443151
  C   5.20525648797623     -3.51095374268324      0.08326265279360
  N   6.01781411780858     -4.47736295397830      0.20362345185314
  O   5.79611502420272     -2.26890997078253      0.01922008738032
  C   5.08900763341787     -1.12032414173705     -0.05370582350159
  N   5.81162012377653     -0.04899018463354     -0.08723972924741
  C   5.17734874720807      1.15516075496992     -0.20968353080816
  N   5.71477050022239      2.29806637373252     -0.28420961693018
  O   3.77638054634050      1.16776939467783     -0.28888847644636
  H   1.22900471655479     -3.41498242629399     -0.73077429059311
  H   1.10001026403461     -1.64077786125874     -0.62247111503424
  H   0.79120045992456     -1.81163798542580      1.68987433186490
  H   0.23291186283266     -3.76199569506095      2.73310741540448
  H   3.29100652689410     -4.53856730292142      0.00825093383291
  H   5.49222749242020     -5.34614670113807      0.24235334738541
  H   6.72040792950887      2.16309127566677     -0.23083528005821
