23
Coordinates from ORCA-job 6599optt
  Br  1.13903081925037      0.37930423999562     -0.55662753284244
  C   2.97782817218498      0.07319914825344     -0.24835490831348
  C   3.47110834881279     -1.14144807944370      0.05805682745395
  C   2.66685000055177     -2.40391732659451      0.19088919319464
  C   2.23098500230357     -2.58808302482239      1.59884398975654
  N   2.00484233222688     -2.80859460078223      2.70529495338545
  C   3.49499427709011     -3.59862559999137     -0.28092648753906
  O   2.93147828684000     -4.67671749763123     -0.61750722597552
  C   4.83472262892745     -3.69093310450236      0.44748025400880
  N   5.42472683641322     -2.38567067302207      0.73165141844733
  C   4.89561839682922     -1.20008057396394      0.31339861338175
  C   5.66843345410061     -0.07035998869681      0.22929804833691
  C   5.12261374930444      1.20739517401524     -0.11744112543887
  N   5.70675821826198      2.34909484247085     -0.24856882309275
  N   3.74780191746319      1.18894023177591     -0.35284669257675
  C   5.78615860412003     -4.48079074778929     -0.35407228931548
  N   6.59752683653438     -5.05153558143134     -0.92993881425764
  H   1.77646488446847     -2.37598948827618     -0.43632794112365
  H   4.69859692342085     -4.23223322430587      1.39926015060392
  H   6.41898291107828     -2.38137471312572      0.89328409281679
  H   6.73263127245188     -0.12501697692388      0.41831674042547
  H   6.69898890087551      2.25079587908297     -0.06099556231738
  H   3.33585722648989      2.07364168570891     -0.60516687901854
