24
Coordinates from ORCA-job 6600optt
  Br  1.46942610372514      0.41474942354863      2.51451342857239
  C   2.65871096120443      0.61725986693151      1.03887058390748
  C   3.60880575373603      1.68074841456281      0.99071686749374
  C   3.11232271729103      3.03895283565539      0.92220672221946
  C   1.86471747119290      3.40708188990429      1.29244472034841
  N   1.00377602360265      4.01504296434625      0.32785780052555
  C   0.30407487522932      3.12961783558940     -0.24555720497938
  O   0.39894744518646      1.82551503325571      0.12106375583557
  C   0.10190219716402      0.72811147177416     -0.69308432946208
  N   -0.99331371921025      0.63754779705446     -1.34712617147754
  C   1.16988598516860     -0.23651131715321     -0.76038928959898
  C   2.40863420475419     -0.09715740128434     -0.14316177767358
  C   3.65572158676060     -0.53671672683010     -0.83352288284961
  N   3.78660966758239     -1.49510278609145     -1.66717522721233
  N   4.78431249167608      0.18947698837325     -0.48869811271613
  C   4.78874532916785      1.41121346646132      0.18257863503739
  O   5.74149510731108      2.16799315558218      0.05156665589335
  H   3.61169372727094      3.63431540934198      0.15974878767676
  H   1.34827218388011      2.92333895581791      2.10952249925212
  H   -0.39091985775440      3.36158528876624     -1.04892573988829
  H   -1.58193337345083      1.45027238560335     -1.18734937071749
  H   1.03872477831525     -0.94973156062224     -1.56326030705968
  H   2.89228239260131     -1.95173472051466     -1.81728914061635
  H   5.61910594759505     -0.02286867007287     -1.01555090251078
