24
Coordinates from ORCA-job 6602optt
  Br  0.94359809440201     -0.28945922411741     -0.28096217928630
  C   2.83352855457066     -0.18232123511911     -0.10243301145122
  C   3.46478023791724      1.07369384491964     -0.02776250710487
  C   2.84120371469514      2.33716681972096     -0.08524253523857
  C   3.54590117443199      3.50116542907373      0.02731328386544
  N   2.87546492121228      4.74653935708817     -0.01464939754680
  C   1.75475120603111      5.05749592655826      0.67237344351544
  O   1.14806440437301      6.10459187161204      0.57666231516307
  C   4.99699506591543      3.52589313292679      0.19203357260110
  N   5.71957933989607      4.59957996664837      0.33687094645524
  C   5.61614765010520      2.22649173342097      0.18469641594212
  C   4.89312261490370      1.08023961363930      0.09763198794297
  O   5.58353607291713     -0.09901736004240      0.13110064352441
  C   4.93056364735677     -1.29954333354542      0.07332950213653
  C   5.77652577031121     -2.44323753434330      0.14750799694667
  O   5.38745213112131     -3.61094338293532      0.10652405565759
  C   3.54804389247341     -1.35503385340500     -0.05052174585576
  H   1.77074210696994      2.38013223057395     -0.24323103815921
  H   3.25810905228175      5.48137562773708     -0.59581064704366
  H   1.44120631712518      4.24501869020512      1.34640621313319
  H   5.12875031281059      5.42575634849831      0.38825786276561
  H   6.69074946939168      2.17497340453623      0.29187588364392
  H   6.85011826789242     -2.20327685517250      0.24964539902442
  H   3.08806598089472     -2.33028121847850     -0.09961646063130
