24
Coordinates from ORCA-job 6605optt
  Br  3.72988031559691      1.70870531116554     -2.94058118082991
  C   4.67587226216299      1.08983624639016     -1.43030327631614
  C   5.79933015053203      1.68621819298777     -0.97560039298596
  C   6.43678569099299      0.94755862907266      0.10980642206582
  C   6.39634114263336     -0.39676828546922      0.15178502515779
  N   7.52977808946337     -1.09131961130625      0.57284097689116
  C   8.85525217483648     -0.53620351713857      0.43067954546681
  O   9.68797570511026     -0.83171456976102      1.27479964483812
  C   9.04322439650131      0.30800706200130     -0.72924671298731
  N   10.07717255068298      1.14620724057756     -0.90042378026590
  C   9.98294196831075      2.21737706255450     -1.68719224195157
  N   8.90736764644413      2.89366690268060     -2.09007765960238
  C   7.80497228046732      2.69078011382469     -1.34577441145489
  N   6.59109861742112      2.52815771871444     -1.77136696976601
  C   5.22365304019179     -1.07117572051236     -0.42275536641057
  N   4.93130900671502     -2.31827372645412     -0.39294817902729
  N   4.31255875924355     -0.16889561444277     -0.96473879661557
  H   7.21879247831719      1.41622304229767      0.68137879900346
  H   7.47572697157988     -1.78165885854944      1.30845427107370
  H   8.27034664599515      0.26754753878217     -1.49192824962995
  H   10.93559010962689      2.59369448032628     -2.05695333020340
  H   8.03571724085796      2.62929465936471     -0.27846098334808
  H   5.67869974612551     -2.83301043971046      0.06406778907842
  H   3.47461301019092     -0.59125385739585     -1.33346094218033
