26
Coordinates from ORCA-job 6606optt
  Br  1.20467036530931      0.22766143244220     -0.47722829596937
  C   3.07340247831332      0.02492972279419     -0.20638113565933
  C   3.65588904196569     -1.25016855416937     -0.10643777988457
  C   2.86023961173812     -2.52702332226910     -0.08163226423235
  C   2.32882108996692     -2.74773544385342      1.34980586724995
  N   1.78377311821243     -4.07710056927370      1.59455700328766
  C   0.63760852391903     -4.52007110774480      1.04379670779931
  O   -0.10791894146702     -3.86188927850783      0.35269352962442
  C   3.73573374135627     -3.67135481039954     -0.56216263208413
  N   4.96053867579160     -3.71424135945491      0.21827071150348
  C   5.73849991150026     -2.57314634041912      0.34411650593160
  O   6.91938060961105     -2.67435140870088      0.64714775012601
  C   5.04094313374685     -1.30104374051317      0.12126172400066
  C   5.77374472868448     -0.13033464349301      0.19053082711286
  O   5.19701753995200      1.10126768358009      0.00050831689346
  C   3.81980322623266      1.23620495737094     -0.17795607888921
  O   3.41155003178592      2.37167808085805     -0.29618261200349
  H   1.99888430285150     -2.45160503078083     -0.74710983613340
  H   1.55128410601821     -2.00719482868115      1.53939784902767
  H   3.13677956313640     -2.59482990164046      2.06361871604872
  H   2.36478252189129     -4.75020065436318      2.06541521295830
  H   0.42589484353132     -5.57511410124196      1.29649514534669
  H   3.94623577827889     -3.52167363718684     -1.62785650951555
  H   3.21799377036155     -4.62585614149522     -0.45108127187680
  H   5.53104661949487     -4.54359703753483      0.14645256766249
  H   6.83540160781702     -0.09020996532213      0.36395998167493
