17
Coordinates from ORCA-job 660optt
  C   0.79591373762518     -0.57534335893038     -0.05478940428810
  C   2.20849363958418      0.01830739487213     -0.04586260570778
  C   3.12469267977398     -0.85189669640696     -0.92593942905612
  C   2.21024020466208      1.45912447147859     -0.45468342338607
  C   3.00741220118089      2.43178700703349      0.14836006383539
  C   3.13724178217625      3.77443779900784     -0.24777880213660
  O   3.81206235886673      4.67908251878231      0.32180726595404
  H   0.14592046309397     -0.02937876235147      0.63022131783774
  H   0.79172784023612     -1.63561184636989      0.22011120806836
  H   0.36707617583575     -0.48854307850921     -1.05814470092808
  H   2.59525360002146     -0.04041370161742      0.97909450858040
  H   2.77221453730953     -0.82920701800999     -1.96139171068039
  H   3.14541664894204     -1.89805609752178     -0.59511414226877
  H   4.14171450717200     -0.45881200138524     -0.91338206805790
  H   1.63967248806234      1.71255726706068     -1.34787651576233
  H   3.57905581486040      2.15050050056694      1.03414895320090
  H   2.56189132059708      4.04046560230036     -1.16178051520467
