23
Coordinates from ORCA-job 6618optt
  Br  1.13589287639733     -0.22510053631673      0.16289069293980
  C   3.00735414958083      0.05544141798241      0.03140533952444
  C   3.58458967693683      1.26100434959242      0.14080682513160
  C   2.91425305843885      2.57167550866004      0.42119169748568
  C   3.71587436899668      3.69768721703617     -0.23277944437843
  N   5.12250134478872      3.70186728297699      0.12505486275177
  C   5.64213443299725      2.52831237583656      0.19001297192861
  O   7.05433192734641      2.50217550878459      0.32176676553248
  C   7.55323237698763      1.92029694568442      1.39227519856173
  O   7.01955100054000      1.63246787224088      2.41718716829024
  C   9.01162023181940      1.70184505469960      1.20428373286418
  N   10.14149980960354      1.53505717128390      1.12710266787207
  C   5.03075828464969      1.25053753339255      0.07146007558354
  N   5.77991669856313      0.13235803911694     -0.00578488301212
  C   5.16017175721180     -1.06709602609892     -0.11536449552330
  N   5.71452150758629     -2.22834904888786     -0.18718495326685
  N   3.74638610120684     -1.07882536949346     -0.17614783057390
  H   2.88200100238036      2.74109730249445      1.50350500212454
  H   1.88595541159383      2.57421745185170      0.05669983205692
  H   3.28833020787374      4.66649695145080      0.03024529646651
  H   3.63394624042158      3.59089142220953     -1.32439082689568
  H   6.72012517353228     -2.09051126249334     -0.14947231320984
  H   3.31805236054688     -1.98854716200368     -0.17876338225399
