27
Coordinates from ORCA-job 6620optt
  Br  2.24762929085513     -1.44268976042562     -1.61596661562222
  C   2.54457413514588      0.07209628192530     -0.46495361499508
  C   3.14239192384210      1.24655478170778     -0.98006782139371
  C   2.93824067461127      1.70149140540808     -2.39395273960776
  C   1.69625959707357      2.65142276454819     -2.52081191908135
  N   0.87609314985731      2.59176176749069     -1.31347664882678
  C   0.93790098993870      3.59305220208883     -0.58030530698073
  O   0.48335122011729      3.64902663780882      0.72332891310457
  C   -0.04385002993476      2.56492598185440      1.38471003773392
  O   -0.96529412664925      1.92630164457010      0.99236524235109
  C   0.66355948766241      2.34496582031595      2.72769075284732
  N   1.48280904992804      1.12779835878841      2.74257577057212
  C   2.24077372030775      0.95215357914393      1.55508000301526
  N   3.28095870084058      1.85778800233302      1.32325525420329
  C   3.50652318467888      2.23282365346639     -0.04200560739635
  N   3.94576988437081      3.42459618084286     -0.35389068032475
  N   1.98609562583865     -0.02677968818952      0.73819713206625
  H   2.79932781922235      0.83814958199568     -3.04253572469043
  H   3.81201423099258      2.25405350782903     -2.74380655709246
  H   1.07745687957496      2.34571480859719     -3.36656805292249
  H   2.04753934516259      3.67413543817428     -2.70103120353376
  H   1.45469755264832      4.52678365515857     -0.80038227691302
  H   -0.09378312723588      2.25830897726655      3.50758257270186
  H   1.28643930409659      3.21305596414650      2.94188213637228
  H   0.87613248371372      0.31712257368588      2.80008274826232
  H   3.34950588290558      2.62187473594405      1.97850138781119
  H   4.11188315043482      3.97251114352462      0.48750281833945
