25
Coordinates from ORCA-job 6622optt
  Br  2.12535358350712     -1.72264457833200     -0.13083744955771
  C   2.55479978209740      0.04855973048986      0.38062414989807
  C   1.54929029312455      1.00283417306575      0.63617594503408
  C   0.08360054156145      0.68564839766147      0.60144613846297
  C   -0.62335008266433      1.04431984911399     -0.71695942027877
  N   -0.56719039895263      2.49003263644200     -0.92814547496953
  C   -1.27717939273500      3.16197843901853     -0.15949638827040
  O   -1.19098567867546      4.52283529767613     -0.05786385028620
  C   0.01903327346672      5.15908828629904     -0.09375419597833
  O   0.03397579030260      6.32310001328264     -0.35720137561050
  C   1.29497095600205      4.39676865426858      0.22747361851583
  O   1.10481679614438      3.31730223358337      1.10847277901198
  C   2.02110792649031      2.29007375684064      0.90910387671249
  N   3.26306652136876      2.69112905858989      0.97753696357137
  O   4.23277332688367      1.69041879221224      0.78075572670387
  C   3.93130426961049      0.38639108077700      0.41616527563764
  N   4.91809028768864     -0.39458218633526      0.16413863606251
  H   -0.42769272504856      1.21892108349024      1.40741904576995
  H   -0.05438889056295     -0.38118644113623      0.77812789596211
  H   -1.66371084900923      0.69740656674962     -0.67553262842590
  H   -0.12710422682659      0.54961189202134     -1.55061247499272
  H   -2.03667576763329      2.77721040236537      0.52486705298077
  H   1.98626330176550      5.13145580642459      0.64009231580923
  H   1.70197658649359      4.04930081628812     -0.72596448922861
  H   5.78085477560077      0.13402623914304      0.27296832746578
