26
Coordinates from ORCA-job 6623optt
  Br  1.20796093771969     -0.53245940246992     -1.65546016878403
  C   3.33680316842207     -1.03806774315089     -0.37806870242472
  C   3.31525717810186     -2.03529026123590      0.56057259530417
  C   2.02372306261905     -2.50847391624777      1.16778814368686
  C   1.46614573826304     -3.70169045298004      0.35284139636638
  N   1.95438823968172     -4.98694378741079      0.84908785486044
  C   2.93773284181701     -5.60087197816289      0.39505769111247
  O   3.75970306834899     -5.13872740198374     -0.63113659747395
  C   4.98721082547200     -5.71655606145361     -0.75296325726087
  O   5.22459545209328     -6.83325071660675     -0.39155239329773
  C   6.02385813065361     -4.76166252256745     -1.33680679737083
  O   6.40313236875607     -3.79730245623008     -0.36689108382577
  C   5.47233331860102     -2.77491102197319     -0.27652157229374
  C   4.46356058636127     -2.84876722985358      0.63442160571680
  C   5.48767560963132     -1.76533075075972     -1.30071296968919
  O   6.30930764398803     -1.65324408808234     -2.20837834392139
  N   4.40805838307692     -0.89051306221697     -1.18273441618354
  H   1.29574580450224     -1.70071722387576      1.11643919304979
  H   2.13950842567731     -2.81394926390728      2.21112505463950
  H   1.69721739853190     -3.53857883492273     -0.70181364439669
  H   0.38203703304299     -3.72978775056567      0.46230076150045
  H   3.26746766476591     -6.55251805140884      0.79691571916004
  H   6.90762552087897     -5.34902969680759     -1.57356799013753
  H   5.64181366352980     -4.27265417154378     -2.23670777580020
  H   4.50132418487414     -3.65487093337783      1.36288177407883
  H   4.36481375058971     -0.18183122020479     -1.90511607661552
