23
Coordinates from ORCA-job 6624optt
  Br  1.50520207171719      8.77173117957646     -0.19222712037188
  C   3.11478123730117      7.80226709460059     -0.00246342395806
  C   3.07785682234613      6.47967518813876     -0.09171352181745
  C   2.05924939259958      5.42388571236144     -0.17095232223025
  C   0.65096859081247      4.89421596647894     -0.18820361217701
  N   0.94415209908226      3.44933541555367     -0.05224181029622
  C   2.09429838821438      2.93150656174861      0.06591398052028
  O   3.44549047350649      3.32706456115499      0.09847211531908
  C   4.33235395810780      4.39605502096380      0.54046591621189
  O   5.22011353960138      3.99313220780814      1.22404416188514
  N   4.28180144330419      5.71858044429504      0.05225133001313
  C   5.50424506459335      6.49620579319711     -0.00817175992807
  C   6.66345567945948      5.81066811710508     -0.50223980868515
  O   7.78775966759775      6.29022887140827     -0.61253788231869
  N   5.50138596717263      7.78841386991234      0.27431361977617
  C   4.37625418989308      8.52281587303167      0.37331157915852
  O   4.32290350875609      9.69310353730212      0.73001685946213
  H   2.32562347929560      4.96773055303029      0.78013871099412
  H   2.48559977505552      4.83993329752663     -0.97893927090149
  H   0.09671280000464      5.04303022098043     -1.11402821954569
  H   0.02282698080006      5.20203974954181      0.64723362161898
  H   2.14357550112872      1.84815954311703      0.12113845324172
  H   6.47438936964997      4.76822122116666     -0.81658159597117
