20
Coordinates from ORCA-job 6627optt
  Br  4.00463491286434      1.15810989784551     -3.62778074029722
  C   4.00034340844781      0.23971571380854     -1.96726748970744
  C   3.00374102548084      0.47590814800353     -0.98589346777485
  C   2.15411991682186      1.63945206980831     -1.02292528577861
  C   1.68324532644493      2.37201511603700      0.02465333377292
  N   2.00735406488626      1.99903808655004      1.35467016052101
  C   1.21545212566196      1.14204196152633      1.82050237904660
  O   1.58268227800835      0.28818025148506      2.82469261811738
  C   2.03411871352092     -0.90987980131914      2.20557942801307
  O   2.24074613049066     -1.86202473499793      2.88797555249349
  N   2.01920125135474     -0.70597264656972      0.85585174723092
  C   3.03261387689040     -0.47685446292269      0.08365048012197
  O   4.15326996478590     -1.20263598690493      0.31495069150434
  N   5.22067446812303     -1.29683650709035     -0.59318348758711
  C   5.04290906262058     -0.63227016245019     -1.71296383282225
  C   0.94857810117583      3.57195597237053     -0.20697936275866
  N   0.34731672423193      4.53959185198233     -0.38022858064482
  H   1.98801879892612      2.07038012928245     -2.00378152841099
  H   0.21245000107352      0.95789984698165      1.43127030528234
  H   5.83052984818990     -0.78681474342636     -2.43979292032207
