21
Coordinates from ORCA-job 6628optt
  Br  0.96866324066437     -0.24628941723944      0.28072313486575
  C   2.85720155072906     -0.12905548696512      0.14844764889285
  C   3.66069141636759     -1.26941010889241      0.07022638387263
  C   3.08462837814012     -2.56138262788398      0.01379208844360
  C   3.72256498704910     -3.78127298258086      0.04733003322898
  N   3.01906510562802     -5.00586404522951      0.04219587257577
  C   1.79016433407757     -5.25041354742417      0.54090470168344
  O   1.25609541571181     -6.34225293057114      0.54824794374072
  C   5.12589746131317     -3.95458950351342      0.03410476986836
  O   5.71743125754749     -5.03658620029780      0.01679507979223
  S   6.14282442170840     -2.49528742524092     -0.00469432875229
  C   5.10090597595109     -1.09215777708002      0.05249495027781
  C   5.72200598424917      0.14007206607382      0.06817194248372
  Br  7.63176286696082      0.20849382201760      0.04743903771461
  C   5.10717424180026      1.44864364087160      0.07794471188927
  N   5.64472485702548      2.60639503579388      0.08047431202667
  S   3.34164394986022      1.52791191404605      0.06096198263614
  H   2.00781770893868     -2.58605483653227     -0.06504423745892
  H   3.58168151138253     -5.81194986103811     -0.20456495447822
  H   1.29908541237609     -4.35539015504514      0.95239735664631
  H   6.65896992251890      2.53444042673139      0.06865157005059
