23
Coordinates from ORCA-job 6631optt
  Br  1.18178608952958      0.23346984910393     -0.38018741926552
  C   3.10649964601752      0.08273554597074     -0.21032118217089
  C   3.63569942947055     -1.16880031165912     -0.06584652476796
  C   2.87796975449355     -2.46481837927538     -0.03370118891605
  C   3.76558337456442     -3.53158542139771     -0.68334049542869
  N   5.03413271820489     -3.58049429097676      0.00459364037393
  C   5.65861314116339     -2.45459914495873      0.49124556255791
  O   6.63893961143109     -2.52625968619662      1.18900407120650
  N   5.04322709058838     -1.24733487747672      0.09832262666114
  C   5.86123720880529     -0.07283217753970     -0.08608875849743
  O   7.06622181909142     -0.18906903675174     -0.16324455299725
  C   5.11190748144996      1.16356184689076     -0.20081860895264
  C   5.87833968056109      2.38365665984573     -0.28594573099162
  O   5.41966114930534      3.51284729763497     -0.39110365831361
  N   3.75844860521728      1.21586054963785     -0.24875310330310
  C   2.50779627340971     -2.87608188967932      1.32761646642325
  C   2.22347441492139     -3.22772441357282      2.43773536089720
  H   1.96388498690149     -2.34216304537511     -0.61500864009069
  H   3.90579576672446     -3.26928903634693     -1.73502473480919
  H   3.29883428205900     -4.51383150741195     -0.62808073947492
  H   5.28612588857520     -4.41425062603419      0.50787990692830
  H   6.96786442485068      2.22371299559723     -0.24133822793596
  H   1.97295716266428     -3.50971090002840      3.43140593086730
