27
Coordinates from ORCA-job 6636optt
  Br  1.54485091480458     -1.67515428827544      0.26796115881326
  C   2.71553706529387     -0.15396371866088     -0.08604791153853
  C   2.43794725728497      1.06764054147081      0.58580972869754
  C   1.36843934062250      1.22190741766269      1.62807711947360
  C   -0.01328132325763      1.62802971746476      1.08062161097719
  N   0.05927894985566      2.86197345428317      0.30352432476797
  C   0.45850599749297      2.72085349125418     -1.01888901529698
  O   0.00281334058530      1.86545936088800     -1.75003247107128
  N   1.37013143481957      3.65058715749936     -1.46855588552541
  C   2.31916236646871      4.36729907188592     -0.62720206332637
  C   3.01834596764118      3.56100693913311      0.49585266264448
  C   3.26263384583206      2.12362381292440      0.09930200466845
  N   4.23715351382783      1.96611725346840     -0.75981170398767
  C   4.47326760306010      0.69127802858612     -1.21629912836049
  N   3.64922315748743     -0.37804400356720     -0.92499777324605
  C   5.58082572636304      0.46846657925340     -2.05347317885797
  N   6.50465313917378      0.29184493383715     -2.73449765263880
  H   1.67449972064835      1.96263574558526      2.37342346570020
  H   1.24974715454896      0.28390046726003      2.17354110111944
  H   -0.72349759358797      1.76035855402633      1.90057384555098
  H   -0.39762669179431      0.85635049687900      0.41547147443700
  H   0.52911202559205      3.60681216655537      0.79338746076729
  H   1.71648425658194      3.38106621551774     -2.37629364507963
  H   3.08842471133377      4.73157515838098     -1.30494735329250
  H   1.83888279307597      5.25046906198126     -0.19147404868638
  H   2.45830734104011      3.62294832895190      1.42736093868969
  H   3.98617798520517      4.03195805575409      0.67261493460095
