26
Coordinates from ORCA-job 6640optt
  Br  1.36694660564674      0.39984529761621     -1.05304341596202
  C   3.20475928851837      0.19722492595898     -0.47682715858301
  C   3.66154884980516     -1.06403629277167     -0.16148212735746
  C   2.83616820912028     -2.31385326873947     -0.12865483723007
  C   2.22842124574795     -2.45385324181924      1.29620540300154
  N   1.85622688076294     -3.81697983704077      1.62409766507477
  C   0.66603793236546     -4.36314619862112      1.31195992953477
  O   -0.26466465306109     -3.78240850124557      0.79536910863527
  N   3.68064402015572     -3.44219398440209     -0.48168649348893
  C   4.84522960021948     -3.67005497014560      0.26757498595695
  N   5.29962614712073     -4.84384846157799      0.52405597513110
  C   5.59239324243308     -2.43986902648096      0.66565541705543
  O   6.70976950706010     -2.51479424759086      1.22281243722770
  C   5.00028506840681     -1.17665271105322      0.29903983686159
  C   5.73360141848632      0.02706831576529      0.40849666820929
  C   5.14636716145142      1.21131784643970      0.04308892788046
  N   3.88158239253534      1.32553128235087     -0.41142631753583
  H   2.02230160687527     -2.27146226402886     -0.85035391825551
  H   1.34524360209431     -1.82057452302993      1.37297250190212
  H   2.96825269977873     -2.12883204611276      2.02765308621980
  H   2.58768700231158     -4.43160335417012      1.94920639109369
  H   0.60788579374762     -5.42953214974239      1.59248999641407
  H   3.14966490163567     -4.28834145402543     -0.63494364544802
  H   4.67129960885833     -5.55295027353789      0.14174742621311
  H   6.75078158007556     -0.01455823840233      0.77213414767789
  H   5.69994028784803      2.14255737640726      0.10685800977127
