25
Coordinates from ORCA-job 6641optt
  Br  1.54147220341309     -1.60819992450455      0.73580791086942
  C   3.27395555634219     -0.52500594926185     -0.44650971616625
  C   3.76455276627604      0.70916942916555     -0.01651742880405
  C   3.20201285578284      1.90178350519074      0.44594339927154
  C   1.75099349725463      2.22792399507565      0.63866251868610
  N   1.64364056000544      3.55674691800917      1.20887961537335
  C   0.49794406171063      4.24430346702380      1.27079608789103
  O   -0.59261060714125      3.84267840659422      0.91381879030124
  N   4.16749905946331      2.78487397903238      0.75470643934083
  C   5.35587239220332      2.20522386141387      0.48307773255673
  N   6.56556282731309      2.89665273418015      0.69975103531036
  C   6.74118727654130      4.21693153773263      0.47195957231839
  O   7.75510895150922      4.83194008508615      0.73702215289446
  C   5.19061363396197      0.91711377057835     -0.00282728978752
  C   6.02133331593356     -0.14545399250553     -0.43103624719889
  N   5.55526460740479     -1.28808373362561     -0.83014209359238
  N   4.19110484044921     -1.41242543483826     -0.82551819538273
  H   1.28005411961559      1.48397468182356      1.28765319490986
  H   1.20595745518601      2.19465174602684     -0.30797271001327
  H   2.52014790872927      3.99650685098718      1.45452129934396
  H   0.63602312109705      5.25419486835649      1.69593761486706
  H   7.34587006683715      2.40959682277526      1.11499617081902
  H   5.85546701702895      4.68157157587259      0.01642060413530
  H   7.10346617277398     -0.06433437231430     -0.44996799700224
  H   3.88350634030834     -2.33433482787465     -1.09346246094136
