24
Coordinates from ORCA-job 6642optt
  Br  1.17186209731043      0.64207797346769     -0.15363728510329
  C   3.10667049704989      0.14263886844886     -0.68368130339004
  C   3.57571641588212     -1.09549241323318     -0.23105511946062
  C   2.79997633150842     -2.37694189632488     -0.21539300255188
  C   2.16273386812128     -2.61637668090962      1.17009082613946
  N   1.70499721999033     -3.98380442939423      1.35470711891069
  C   0.46935766352326     -4.42308922762195      1.03595004154562
  O   -0.43388899095671     -3.74470863122532      0.60436313620870
  N   3.71573796473758     -3.46484547913471     -0.55497186523234
  C   4.97857534099411     -3.55350790457551     -0.04244139659034
  O   5.61784290684238     -4.59389062768558     -0.01257346848608
  N   5.48287194454707     -2.36208057061973      0.42434633849891
  C   4.89263876755901     -1.11877895209879      0.17935063892666
  N   5.68985610691168     -0.06868569303128      0.35675743479596
  C   5.19968121347624      1.14301490454514      0.04568789393206
  O   5.73220153361462      2.20929805436160      0.20428243017845
  O   3.92407315574388      1.19852959972884     -0.60068873384512
  H   2.00861409851782     -2.35462659550406     -0.96563862728333
  H   1.31941734773815     -1.94029308003953      1.29884334791512
  H   2.90628133907428     -2.40283602815828      1.93984843996680
  H   2.38047997460116     -4.67469421147375      1.63799079855096
  H   0.35237347425728     -5.50542273684140      1.22292406470024
  H   3.32648265579238     -4.35882693047223     -0.80649373370486
  H   6.46044707316313     -2.35465731220796      0.67343202537824
