23
Coordinates from ORCA-job 6646optt
  Br  0.92570102936002     -0.24169620396749     -0.12322836023071
  C   2.81533115034833     -0.11635821471170      0.05178979667990
  C   3.47693528448928      1.12412641373433      0.14937445922459
  C   2.77785947018612      2.43663016948403      0.34462949340670
  C   2.89417009954110      3.28572776667914     -0.90911855946552
  N   4.27456049711699      3.63381267542789     -1.24836376229984
  C   5.43481440464276      3.44547364307374     -0.54947572080724
  O   6.37782150813878      4.19218598335927     -0.66253349245426
  O   5.51766250596372      2.39128660661250      0.28753387531518
  C   4.85182293881701      1.18642490222119      0.05019478193265
  C   5.65885480032582      0.03340434721642     -0.11186342405319
  Br  7.52663043615349      0.12499077737543     -0.37627784954079
  C   4.99039322850927     -1.17618392633489     -0.23415235760114
  C   3.58229296210708     -1.29130425227629     -0.16391006617563
  N   3.24356641743287     -2.57992166190031     -0.34266429499772
  N   4.32406835664726     -3.30885481751991     -0.52299348506269
  N   5.38901810746804     -2.44212602396347     -0.44775886509220
  H   3.21709174175066      2.97518514332990      1.18966646491704
  H   1.72208187636845      2.28141775502850      0.55759785559713
  H   2.33580336629171      4.21861495679817     -0.77671607358249
  H   2.44703451748648      2.73873995678581     -1.74304840638310
  H   4.37666472296043      4.42967484961673     -1.85721930882252
  H   6.32482057789428     -2.77025084606902     -0.60846270050417
