27
Coordinates from ORCA-job 6648optt
  Br  1.23678626074943      0.38212885005847     -0.43305021013039
  C   3.09026210559207      0.07379714470903     -0.11892122156370
  C   3.74515301131383     -1.08315667897276     -0.45837774250053
  C   2.98293525878678     -2.26765868164890     -0.99760334104083
  C   2.36076817534910     -3.17494473132877      0.07552029135960
  N   3.19953781247009     -3.46531386740097      1.23083807958484
  C   4.55973287749492     -3.44766355506902      1.25101193150671
  O   5.21888814160409     -3.41627511219965      2.26151655186694
  O   5.07515178537823     -3.52322582561743      0.00336126010095
  C   5.91453113899847     -2.39995339093295     -0.35958061078230
  C   5.14879256551757     -1.09634854509113     -0.29322470825580
  C   5.87601494417214      0.10356658135970     -0.00258276802843
  C   7.27609176030841      0.20159566065287     -0.19778817297951
  O   8.02958590202300     -0.66475700300542     -0.67421566471345
  C   5.14457752108935      1.29296964845283      0.42960238425674
  N   5.56246079795500      2.41698551133613      0.90461795158544
  N   3.76110943577899      1.18773417459715      0.32779842468255
  H   3.63171758559692     -2.85194673652219     -1.64330439169950
  H   2.15610678789522     -1.91343501351988     -1.61663446985866
  H   2.03548172218230     -4.10578633802801     -0.39991441696273
  H   1.46970646708591     -2.68007354160843      0.46630804877345
  H   2.79296101228587     -3.34893365851790      2.14324285755776
  H   6.27785728675559     -2.64272203126855     -1.35823501124406
  H   6.77413370944698     -2.36479260742016      0.30357147078685
  H   7.72167584631105      1.17416204817878      0.07753613662309
  H   6.57077706280048      2.41478788042023      0.98915940544371
  H   3.25320302505809      1.97625981838694      0.69534793563126
