23
Coordinates from ORCA-job 6649optt
  Br  1.38622921183681     -0.56610320989167     -2.37808385219866
  C   2.70278851272150      0.02657173258264     -1.08860086932419
  C   3.47964068476608      1.11685552487248     -1.28458055658786
  C   2.94680750223180      2.45213485812511     -1.63926855766180
  C   1.75571948326065      2.66857345592850     -1.06591294070560
  N   1.16081174380124      3.84770781857496     -0.63550605206478
  C   0.53992936143937      3.98794662798474      0.60593379839895
  O   0.22562762139457      5.08990409928854      0.98540890022036
  O   0.23974478813133      2.92030707250322      1.36099416586383
  C   0.75012959548074      1.56018405902409      1.30783016935897
  N   -0.07840955441059      0.63827374304002      0.97634866820274
  C   2.11988528888864      1.45364740929003      1.61542203367878
  C   3.01552561707913      0.43843159678169      1.18838624170000
  N   2.64024853805764     -0.49888046534712      0.16228689767357
  C   4.32427939336438      0.97659466161247      0.80317428901660
  Br  5.66630207008121      1.36281066396481      2.15891609774241
  N   4.59899441225090      1.26844968441891     -0.39706581328057
  H   3.63338275922232      3.24571527022881     -1.90761473171032
  H   1.16931664028330      1.80660381815326     -0.79956022905991
  H   1.52908771516724      4.73318034115524     -0.94948818704741
  H   -0.96817817982729      1.04884972327485      0.70567805265364
  H   2.57654141281260      2.33008469452675      2.06064326020463
  H   2.62059538196634     -1.49184318009236      0.33465921492661
