26
Coordinates from ORCA-job 6652optt
  Br  0.35669345987960     -0.33436906371015      0.01555976861501
  C   2.88527125691538     -0.06046832145760      0.13151782534750
  C   3.63539522276847     -1.17063573342206      0.13330440618502
  C   2.94512989039238     -2.51769586529997     -0.05373478881242
  C   3.79140159946175     -3.78219246782583     -0.22456357651198
  N   4.90214440114594     -3.75643927147182     -1.20242503182103
  C   5.03129517079686     -2.76778997755439     -2.13035528304605
  O   4.16072163703483     -2.24559667268668     -2.76338155467664
  O   6.37587686949814     -2.44773421647724     -2.27356785979301
  C   6.65451875879464     -1.10292204145775     -2.57074753806746
  O   6.83343045085761     -0.31385653119623     -1.40593141434416
  C   5.65959864707780     -0.13882769671059     -0.70485733219381
  N   5.05293086649200      1.07111897187788     -0.86474961892906
  S   3.69886150064868      1.43250761030512      0.12139257814664
  O   4.22401751915464      1.76853471328856      1.41421292378262
  O   3.02357960118478      2.45777428853038     -0.61944798963085
  C   5.08994604247209     -1.13228540992617      0.00238082837336
  H   2.29350514435971     -2.39687305521601     -0.91832468274963
  H   2.27135452627595     -2.70293344885399      0.78582552541221
  H   3.11164979834763     -4.59838366342398     -0.47396482178727
  H   4.26199074395030     -4.04113696717065      0.72659555563574
  H   5.79489126312243     -3.97936899038829     -0.79355736983221
  H   5.84891572493722     -0.69964393946515     -3.18699409033985
  H   7.61034999329298     -1.08278978510810     -3.08559397391900
  H   5.09953183449227      1.55042858732508     -1.75474839467093
  H   5.69699807664568     -1.99442105250426      0.22015590962728
