24
Coordinates from ORCA-job 6657optt
  Br  1.19339256884756     -0.46600649138223     -0.57611334642026
  C   3.03991431406749     -0.22439084001162     -0.20399910291654
  C   3.63076034160237      1.08778143523904     -0.14854655911260
  C   5.03334204939218      1.12678101610102     -0.07281880220423
  C   5.83045232933625      2.41094629905102     -0.15022231383666
  N   5.07576205774009      3.64458876459476     -0.38745010315638
  C   3.89861387464152      3.72967944435763      0.44221431145034
  S   2.66754232864846      2.52560919330213     -0.06137572403961
  O   1.65770446052579      2.42775380758035      0.96934308481139
  O   2.21908074541546      2.96158814389052     -1.37256793143381
  C   6.64434714711578      2.72092725377154      1.10583954790130
  O   6.26769317137949      2.53338961208222      2.22711740890509
  C   5.74494025577968     -0.06340695493084      0.02463259297519
  N   5.16549666093581     -1.31983505193704      0.06077534866789
  C   3.83944298809368     -1.33414092370488     -0.08910646810302
  C   7.16555935477871     -0.00054635472280      0.09283743025221
  C   8.36773032228506      0.10205030597674      0.15323359988814
  H   6.55243455093868      2.31223182068640     -0.96398511957535
  H   4.80675927519534      3.71141640777181     -1.36348311219013
  H   3.40234851249266      4.69408575780071      0.32808945359536
  H   4.14538026345758      3.55035211153126      1.48755794164086
  H   7.59986014313949      3.24224134672423      0.90449777438596
  H   3.37085021976245     -2.31349551750565     -0.12879639025450
  H   9.42459206442834      0.16639941373368      0.23832647876935
