25
Coordinates from ORCA-job 6662optt
  Br  1.32663660098854     -0.01143123483980      1.39601898651845
  C   2.94026503254825     -0.14164428902209      0.42515170285276
  C   3.56657693031037      0.89251395772943     -0.17395680765009
  C   4.91140906097840      0.53921975703201     -0.68793716455207
  C   5.53330813697835     -0.59004509253213     -0.01352259084047
  N   4.87248971500609     -1.54133017211313      0.53034281090980
  N   3.50867675885414     -1.42022073100285      0.47699161094231
  C   5.57122837693481      1.39568484538089     -1.48673690813074
  N   6.94651904186732      1.80657044717800     -1.36519776665606
  C   6.65460122827750      3.05117368820761     -0.62761811288509
  C   5.95939138401372      3.00552257675908      0.50566994634041
  C   4.86081632056453      3.96394264684922      0.80700713756697
  N   5.01814654441827      5.17216743116444      1.29914230936200
  C   3.58340103226049      3.50139134386556      0.37191861917931
  C   3.04662083127824      2.28566385316280     -0.15767992240683
  C   1.71713132609691      2.39368408894537     -0.63257481059967
  N   0.63790881778195      2.48409992611440     -1.04604590522426
  H   6.61251194817611     -0.71016312200568      0.00145967704805
  H   3.05512716305479     -2.06954379429508      1.09763257545686
  H   4.97794412171080      2.14485006251013     -1.99721097266185
  H   7.46064785066376      1.15917172758112     -0.77693500553990
  H   6.67201676876856      3.94259722578261     -1.24459208110776
  H   5.88850441536485      2.04508899675402      1.00989815531298
  H   6.00263716088055      5.30947642553395      1.51697041504438
  H   2.84648343222260      4.29755943526009      0.42480410172050
