20
Coordinates from ORCA-job 6665optt
  Br  1.05572519994160     -0.34566252438271      0.05340139518919
  C   2.89691598736658      0.06923264761392      0.04809088248858
  C   3.45900846889161      1.31556092622047      0.04572428798799
  C   4.92234115504932      1.32621177802796      0.04213903838937
  C   5.57650612632844      0.04218960277527      0.04091016149396
  N   4.97899865223828     -1.10537902440215      0.04325382952367
  N   3.64573963429046     -1.06456983993317      0.04694431705565
  N   5.66807061662698      2.38052820825135      0.04005824158825
  C   5.08625189426484      3.65694642034445      0.04136877289433
  O   5.80333171057029      4.63719002227340      0.03990165664194
  C   3.60147097588523      3.76933806719693      0.04444075049584
  N   3.08889277530291      5.00351546380779      0.04509819336126
  C   1.73597971870049      5.12011074914945      0.04757379907485
  O   1.11010532500233      6.17197523283996      0.04850880680791
  N   0.99646885902183      3.93159435552966      0.04929651336444
  N   1.46902645519489      2.66499002358384      0.04881953831272
  C   2.80035586879774      2.60204680764326      0.04636766596552
  H   6.65853576685976      0.02903914402143      0.03787822951403
  H   3.18338302272045     -1.95799975026505      0.04891966610768
  H   -0.00510821305403      4.02714168970392      0.05130425374281
