26
Coordinates from ORCA-job 6669optt
  Br  1.36772849318346     -0.72684456644911      0.07888288591587
  C   3.16320633954597     -0.40295660246991     -0.81106841568716
  C   3.77818279972231      0.80905700793358     -0.52583384031665
  C   3.17110478482579      2.18727088511433     -0.45608128824706
  C   2.62875807157743      2.65929388382187     -1.75253528073199
  N   2.22503600416338      3.03180141194393     -2.75914189112504
  N   4.30883394011280      3.00157512791988     -0.04498879915337
  C   5.58487820657430      2.27426155563005     -0.13521510940570
  C   6.29620982289619      2.63709844969737      1.17644432823407
  C   5.67923608900007      3.99332764253946      1.53541554677278
  C   4.25700944203555      3.86714861333627      1.01222560476965
  N   3.18240803402131      4.40598648672970      1.43134011608454
  C   5.15097293381243      0.84765408510009     -0.31970350549957
  C   5.91984472110006     -0.29309503543126     -0.28128591983783
  C   5.27452099709404     -1.56028876671873     -0.47748509133794
  N   5.76352558681247     -2.74125852343977     -0.41974433771094
  O   3.92434003510560     -1.52688045877560     -0.81368220915809
  H   2.36945146249273      2.27897100895091      0.28320276644022
  H   6.16608514896575      2.62528543366549     -0.99668599527686
  H   7.38005244675524      2.66231717601540      1.07528033793897
  H   6.03389056944867      1.89420523430546      1.93169398844785
  H   6.17949430306684      4.80822648318673      1.00556087622020
  H   5.68616467626146      4.22061596767381      2.60026746042087
  H   3.37626382941988      4.99401928665286      2.23588845622599
  H   6.98197270518487     -0.28105918703443     -0.08080428811042
  H   6.75082855682125     -2.66673259989842     -0.19094639587239
