23
Coordinates from ORCA-job 6673optt
  Br  0.97616652363809     -0.15892830208888      0.22671454487682
  C   2.85870267913657     -0.10816986833515      0.11599428047941
  C   3.55817564781765      1.06087584145161      0.21250274190117
  C   4.97500562187239      1.13496653096491      0.11224129754414
  C   5.71093915373798     -0.12752033732147      0.04509273432372
  N   6.97514071552566     -0.34357442405796     -0.02613347786671
  N   4.91187714384412     -1.26828003785778      0.01096681657090
  C   3.53582018890808     -1.37836097531228     -0.03899475961402
  N   2.91072899288289     -2.49502904801702     -0.17527909008585
  C   5.65132743795750      2.38591910872555      0.06765964153695
  S   5.18912712581555      3.72480926220095     -1.00182914103280
  C   3.46180629730174      3.80499664905582     -1.11219643063794
  N   2.53467229046732      3.22033326010010     -0.47697926758913
  C   2.84025260343856      2.33057581114563      0.56676995858122
  N   2.50066478738694      2.53757578147610      1.76617124010059
  C   6.92950048063260      2.62448051973562      0.58539345641509
  C   8.03001647641654      2.87904333809612      1.02461931070540
  H   7.49448628476229      0.52454991707171      0.01429089971331
  H   5.44986709710772     -2.11685040276623     -0.08522046584634
  H   3.57356661838110     -3.26424689886331     -0.25123342478861
  H   3.18368693851616      4.51010249813360     -1.89638680281657
  H   2.01858682142242      3.43613797547568      1.82506131289619
  H   8.99688207290954      3.07559380107974      1.41677462471726
