26
Coordinates from ORCA-job 6674optt
  Br  1.00778674863539     -0.04652495566227      0.09838373356016
  C   2.89878657935876     -0.02472263672226     -0.04035781157845
  C   3.57278395080987     -1.23868869350623     -0.11933803305859
  C   3.08357030552280     -2.65310437781773     -0.10245181489072
  C   4.37133825917928     -3.45967564454006      0.03766077890392
  N   4.56264810969318     -4.71900869599523     -0.03071739704400
  N   5.39379059423288     -2.56770812993820      0.24879125714637
  C   4.96274952134691     -1.23526061122097      0.07760669714784
  C   5.69105307020353     -0.09756851829570      0.19247963825109
  C   7.13637971639890      0.02156823722126      0.48806764028375
  C   7.74351759364840      0.85366018643008     -0.62184890391129
  O   7.06798158933716      2.09707416162257     -0.70517208392100
  C   5.71778708779122      2.23681597753849     -0.50909502509229
  O   5.27068680127323      3.34514474526800     -0.70930051660304
  N   5.01726258700978      1.14210370707919     -0.09233872636025
  C   3.55304969848761      1.23202275715317      0.11585177287032
  N   2.94315608513863      2.32700159152383      0.39757728476233
  H   2.54769467339780     -2.96565645790838     -1.00477428958499
  H   2.41968778713307     -2.86283762801438      0.74483805029119
  H   3.67664579219446     -5.18939635330688     -0.19044552610668
  H   6.34728460066375     -2.87594158203906      0.16048996679151
  H   7.60697659577938     -0.96126244185518      0.53598474394739
  H   7.32031422826917      0.53130795738098      1.44364566173563
  H   7.66004799951694      0.32585611011218     -1.57634260375326
  H   8.79176359971336      1.10503288346268     -0.44539048841372
  H   3.58225642526434      3.11176841203012      0.38019599462679
