24
Coordinates from ORCA-job 6677optt
  Br  0.66079749369992      0.17303683915167      1.47832437164272
  C   2.55279076837909     -0.05729691682946     -0.02279565914977
  C   3.35360376736719      1.04344583812917     -0.04485132487479
  C   2.98360037782446      2.49751413217917      0.04180711950130
  C   4.33109062838784      3.20532527033550      0.00683889149945
  N   4.62601249283583      4.44190030929601      0.03172060400024
  N   5.29804211694095      2.22342864429278     -0.06484987410249
  C   4.76608116934932      0.94065764639717     -0.07065413403828
  C   5.42323631320894     -0.26036671926604     -0.07264850422242
  C   4.59602047373789     -1.40033412672886     -0.06260061365010
  N   4.89679218014278     -2.70031721221412     -0.08619844817808
  C   3.68121970213443     -3.27798378916451     -0.09163684546322
  C   3.48717826440932     -4.76414464624527     -0.07608410230118
  C   4.16615187053683     -5.44778812557501     -1.17882010819899
  N   4.68042905836619     -6.01178104171119     -2.03386873589110
  N   2.63944647831248     -2.47789708536124     -0.07425557037226
  N   3.21974901014856     -1.25004494767850     -0.04597165557120
  H   2.45007143411000      2.71921628015440      0.96969617847299
  H   2.35612119250517      2.83575397585727     -0.78458474694107
  H   3.77726393536022      4.99677363425267      0.09114122302964
  H   6.27799433866670      2.44902987720903     -0.06299843938012
  H   6.49682265438767     -0.37098241591232     -0.08210880168277
  H   2.42046182646378     -4.97904860405892     -0.13150342029673
  H   3.87302245272430     -5.17809681650935      0.85790259616821
