27
Coordinates from ORCA-job 6683optt
  Br  1.12184775760845      0.80991672217628      0.56561095751540
  C   2.95145330573590      0.29144492417397      0.53168897212587
  C   3.40004496361951     -0.98487288937234      0.46018903579579
  C   2.54725799959926     -2.21977892738533      0.62750719650312
  C   2.98972237136043     -3.27760859464146     -0.36690092172782
  N   2.24291607150968     -3.87769236431451     -1.21142235584235
  N   4.33363116473939     -3.56060241855983     -0.29463551457312
  C   5.18700456021967     -2.61957914744474      0.44447074187934
  C   6.64790908479456     -2.92671672230979      0.19681876171602
  N   7.07959142258363     -2.54556295855584     -1.13781925251299
  C   7.43864231774490     -1.18637350010622     -1.29916441601033
  N   6.79310922260336     -0.16150385889549     -0.88189915205609
  C   5.58156944821143     -0.12546618105155     -0.25675843759398
  C   5.04232438109963      1.23282323653829     -0.14174473483698
  N   5.60202686695508      2.33260388431384     -0.44178214800293
  O   3.76701014611902      1.36901701258842      0.39583184755418
  C   4.77113839308854     -1.19850337927637      0.18685585301372
  H   2.67196549547899     -2.63044930836786      1.63831308801627
  H   1.49110238163526     -2.00057408561670      0.48866412872900
  H   1.28669340748001     -3.54903801718159     -1.11940039424798
  H   4.72283662347163     -3.88229445105273     -1.17237050984009
  H   5.01995106023417     -2.83854459862314      1.51003532861688
  H   6.79886442538731     -4.00181859275741      0.31946061395724
  H   7.23822927603322     -2.40465749668479      0.96032727507411
  H   7.80956740816861     -3.14904869656676     -1.48490971925539
  H   8.33634303916427     -1.02706910658813     -1.89086918784299
  H   6.52524740535396      2.09494951556184     -0.79909705615387
