21
Coordinates from ORCA-job 6686optt
  Br  1.10713851452910      0.13701129314933      0.12807546596118
  C   2.99273809106930      0.05394140187405     -0.03522964002273
  C   3.55757836598638     -1.19532299066160     -0.01995445505972
  C   2.98082601561343     -2.57361335797262      0.12564617683064
  C   4.01145144545420     -3.70596166228765      0.31193522858516
  N   3.66102379630640     -4.91024534148605      0.55192089479801
  N   5.35873191343424     -3.43723602468528      0.19944014704932
  C   5.87021065771335     -2.16724985681215      0.01206875349373
  N   7.11069721528026     -1.69975035087738      0.02758970892990
  C   6.94911647086844     -0.31497690321082     -0.11161207612343
  N   7.70692916472334      0.79309838236972     -0.08838030707310
  S   6.64288274541713      2.12285410738835     -0.15776697848072
  C   5.12314876871538      1.21916085420183     -0.20943662411069
  C   5.59557835831397     -0.04820180613061     -0.22006126350429
  N   4.92035690796459     -1.20914196725207     -0.15434905239623
  C   3.68564044573865      1.38526445793953     -0.13382433665511
  O   3.06115417172187      2.45509393370172     -0.12351406191808
  H   2.37878933634471     -2.83655215254874     -0.75171057327303
  H   2.29915044167170     -2.61473505786366      0.97859398492970
  H   2.64923782092639     -4.98013207409769      0.60183446831508
  H   5.98561935220709     -4.21230488473818      0.34873453972440
