27
Coordinates from ORCA-job 6692optt
  Br  1.05365927287691      0.86685216361452      0.43974259007510
  C   2.85740210964555      0.46540945291478      0.03048166422841
  C   3.22281834825315     -0.70937243402395     -0.64442451259695
  C   2.20624334132744     -1.70811068139670     -1.12181461027026
  C   1.79238646778156     -2.83008294509860     -0.17861435688017
  N   0.58620669518290     -3.19777603162970      0.00723417232279
  N   2.78965511099312     -3.61415515864512      0.39088555424659
  C   3.98860935767433     -3.10627261555725      1.04269096956968
  C   5.25275500665854     -3.15178856645932      0.16786426748383
  C   5.11970382786065     -2.31516697760509     -1.12360727373767
  C   4.59833637969515     -0.94958045852005     -0.76730658549284
  N   5.55834215998285     -0.13456054481804     -0.37653805800393
  O   5.13653399607541      1.14418817442848      0.04763579595054
  C   3.83511571387474      1.42003990757478      0.42649475185043
  N   3.61233326640439      2.51606367935082      1.05102414891416
  C   5.61476021851699     -4.53701253427905     -0.14245438402835
  N   5.89459269656099     -5.62217172572793     -0.39011778882797
  H   2.57177619718811     -2.20379221555126     -2.02420295605853
  H   1.29449050048720     -1.18126619338408     -1.39983801307506
  H   -0.04582046660763     -2.59878256928212     -0.51625633863362
  H   2.35788782326460     -4.37897628476887      0.88846769086076
  H   4.16449560423962     -3.72458066081041      1.92370109600956
  H   3.85638530287370     -2.07948663320859      1.38463776453870
  H   6.06812661406451     -2.72094144591360      0.75506344145287
  H   4.45863967081173     -2.83822724351345     -1.81275604747254
  H   6.10120516627767     -2.22835041442551     -1.58928831279770
  H   4.50135961803578      2.99190095673534      1.19029533037218
