29
Coordinates from ORCA-job 6695optt
  Br  1.33163669124963      1.28161325378469      0.59438068590938
  C   3.14438001655012      0.68190225312299      0.20423884232091
  C   3.30723246762055     -0.46924957894878     -0.51929146292676
  C   2.18425571192377     -1.32121443586696     -1.03844127900842
  C   1.64209626646246     -2.38958588961233     -0.11058552402642
  N   0.39815831355503     -2.60031002077527      0.08770189760043
  N   2.52965433316552     -3.28667514676826      0.47150032587112
  C   3.83587292961166     -2.94708221995928      1.02449632585465
  C   5.00560669809121     -3.13534121985921      0.05941087293042
  C   5.07500354262592     -4.58055413343147     -0.45097573030804
  C   5.34863810220239     -5.53879094866596      0.61584494794684
  N   5.56300116685552     -6.26797996762542      1.47564533895032
  N   4.86667166000640     -2.26676325714557     -1.10841511157005
  C   4.65910697475463     -0.87866760967801     -0.79783026534541
  C   5.68549830804274     -0.07941497687284     -0.20112732363866
  C   5.36023594548664      1.05855896091610      0.47952420159314
  N   4.08187463875530      1.50207989873038      0.69339297765300
  H   2.55426317650471     -1.84255285259420     -1.92567827370401
  H   1.34279107587615     -0.69492946491341     -1.32959670598868
  H   -0.15321377036427     -1.92214748181518     -0.42960903086578
  H   2.00432581674516     -3.92632871432806      1.04973352756267
  H   4.00367343987839     -3.61662513183003      1.87079151997200
  H   3.86079201149830     -1.92735542243388      1.41033520668951
  H   5.91582173900113     -2.91268535397742      0.63837553789411
  H   5.85512338469676     -4.67658740177020     -1.20895191420552
  H   4.11687563008791     -4.82281701131080     -0.91481889805327
  H   5.66654009373708     -2.38701977282624     -1.71923100615821
  H   6.72943663809735     -0.35975267320965     -0.30904157480968
  H   6.14164699728172      1.69227631966433      0.88822189186041
