17
Coordinates from ORCA-job 669optt
  C   0.83032326905868      0.16707399198487      0.05682908758668
  C   2.31621034187169     -0.10775609059002      0.26087465998681
  C   3.19782586682769      1.08380283751501     -0.11835803312419
  C   4.65239145295104      0.86498634272377      0.07165758703454
  C   5.76074555080205      1.36033318376133     -0.22506851145569
  C   7.05905510060859      1.76775784550367     -0.45858328334028
  C   7.83122986535268      2.62278510319237      0.32745138010782
  H   0.21376454811601     -0.69223490484952      0.33102577177775
  H   0.61959940742650      0.41179833197918     -0.98755852374598
  H   0.50699642602466      1.01872359957842      0.66134697376926
  H   2.62671808571222     -0.97281601697199     -0.33155555323944
  H   2.51622865611654     -0.36694658107127      1.30381356678857
  H   2.87882371248779      1.94614374999223      0.48392024720001
  H   2.98263073694778      1.34730045342272     -1.16658854606518
  H   7.52505743263168      1.36188263012272     -1.35558794112218
  H   7.43391358615040      3.06877428796785      1.23022499728989
  H   8.84248596091390      2.87739123573861      0.03815612055162
