29
Coordinates from ORCA-job 6700optt
  Br  2.62964298251550     -0.17639942700126      3.27694249679846
  C   3.13249009934012      0.34857087082192      1.43719927590366
  C   3.60448629441634      1.56789442826009      1.15868184241984
  C   3.34720285230526      2.78692161595779      2.01096350660969
  C   1.84953237734901      3.03559131922050      1.85465282032938
  N   0.97888032750477      2.95058377778228      2.77855813034746
  N   1.42416716471221      3.19828374192646      0.53267476563641
  C   0.45548566591759      2.19360120643915      0.07631436608775
  C   0.46902244769688      2.10662272445648     -1.43855908016843
  N   0.37631823305656      3.13017119569890     -2.19781350349010
  N   0.50921672203323      0.85442977392577     -2.01250054052629
  C   1.21125363912155     -0.32293835022948     -1.46636297949121
  C   2.56681617483989     -0.05916728099975     -0.84241288583205
  N   2.75925018668983     -0.55785701235115      0.48890916440057
  C   3.33676543285165      1.03885675756981     -1.21104280931861
  C   4.00981808551520      1.84414267448261     -0.26215501239805
  O   4.72671345237599      2.84593378664749     -0.51286661289102
  H   3.93765474662092      3.60798246738500      1.60061803962476
  H   3.58659838767522      2.64322094755034      3.06388119824561
  H   1.43373199854147      2.74322539702455      3.66333790295873
  H   2.20525533957103      3.24613287341173     -0.11073511955023
  H   -0.54922919341774      2.47486373346282      0.39704980490886
  H   0.67660111636043      1.22076264828235      0.52533815504989
  H   0.29351125066682      3.97031902243969     -1.63051391376054
  H   0.57358136167794      0.94765896782525     -3.01611330079444
  H   1.25635021879522     -1.01924924298563     -2.31032083109500
  H   0.59075354523367     -0.80453812546284     -0.70526312541827
  H   3.04215214194861     -1.51991992528776      0.62646489663408
  H   3.27897694808479      1.42729943374683     -2.22392665122089
