28
Coordinates from ORCA-job 6707optt
  Br  3.31720570631768      0.44768360088916     -3.58762243918198
  C   3.11088677488978      0.50332903456416     -1.67478494046456
  C   3.69534792071247      1.55317902360249     -0.96156703205742
  C   3.45896054160277      3.01639374554034     -1.29541048170803
  C   2.24978544155039      3.50811757634036     -0.52233711528206
  N   2.38141195609102      4.44299628957812      0.34385554343379
  N   1.09269449418081      2.80206626886337     -0.81173987324136
  C   -0.04677995256448      2.52758557006307     -0.05478265117313
  N   -1.06581796816489      2.12537307334685     -0.70110322914848
  C   -0.01539351716112      2.59618051058611      1.46486040600124
  C   0.54169553145651      1.33421352290518      2.15971064298722
  N   1.98795021448058      1.22305442742263      2.09607231543644
  C   2.50605646833895      0.71540841195935      0.89561776451559
  N   3.69008449453804      1.30090706376527      0.46027809728870
  N   1.89480350628299     -0.19241315005887      0.24993059894652
  C   2.39775737167010     -0.55762855950503     -1.04762028248834
  O   2.10251448499838     -1.65292473546986     -1.52360723884033
  H   3.28796043856670      3.10639052325586     -2.37047196350457
  H   4.29007632515732      3.66807734687628     -1.01995329442306
  H   1.48580543164210      4.69980892004901      0.74985873644428
  H   1.14402083060780      2.21574288757213     -1.63820123949941
  H   -1.80859579802818      1.85723745287956     -0.06143339710723
  H   0.54679887302937      3.45243837099944      1.83382929754062
  H   -1.04969815954363      2.73389799695297      1.78648995502365
  H   0.12816132170847      0.43220003063072      1.71084080525303
  H   0.23821840421585      1.37074705095852      3.20823712988368
  H   2.44000600991996      2.08982673640267      2.35555664395415
  H   3.98608285350421      2.10211100903010      1.00049724141104
