22
Coordinates from ORCA-job 6710optt
  Br  0.95353773199316     -0.06657100703667      0.09002045225878
  C   2.82342382442912     -0.22992868121606     -0.12495740762946
  C   3.54575705425582     -1.31935774824027      0.41500594220926
  C   2.93441367165125     -2.63173395256543      0.81354744934446
  C   3.17459220833079     -3.49949641844836     -0.39227465401809
  N   2.40433306287852     -3.66334163804991     -1.37669462178824
  N   4.48494755579694     -4.08581568824084     -0.43853270715398
  C   4.71921258788952     -5.29251122809699     -1.13493942515808
  O   3.87779207175855     -6.01501317184261     -1.57516803258872
  C   5.58361441470933     -3.65755549729682      0.33882159765099
  O   6.43209456967737     -4.43637967768743      0.68504915798071
  O   5.68293253668835     -2.37979372920100      0.69428349227221
  C   4.91822839058082     -1.31360679506797      0.20401036909310
  N   5.63526423612793     -0.38333392658815     -0.35928807902610
  N   4.89363127922004      0.70205220993466     -0.74609345279179
  C   3.50418276800909      0.85457199122034     -0.74369646810552
  O   3.02395143817882      1.87191383337756     -1.23973648160309
  H   1.86615589213214     -2.53136184017072      0.98761387250259
  H   3.40489773186808     -3.04896968671287      1.70658751899629
  H   1.51794231044258     -3.19647324857882     -1.19119768089337
  H   5.79274682546210     -5.49627673098802     -1.21040141285069
  H   5.39934783791961      1.39698263149641     -1.26895942870123
