22
Coordinates from ORCA-job 6719optt
  Br  1.07178497192133     -0.36848448621705     -0.03497759067428
  C   2.90241759452385      0.04804176506311     -0.03970150237561
  C   3.46365241563783      1.27276089439055     -0.04194073126601
  C   4.92724877312720      1.26205982710484     -0.04499002745860
  C   5.55041379992107     -0.02705640673805     -0.04590088624938
  N   4.96812102209344     -1.16664616737918     -0.04383290814826
  O   3.57084580656715     -1.13451604544665     -0.04032389879102
  C   5.64275613687955      2.40688234792191     -0.04671805698920
  C   5.05955170976966      3.73322603096162     -0.04554858031044
  N   5.77633926648135      4.82354887461187     -0.04683107734866
  C   3.60127845333165      3.79918458553952     -0.04286367585151
  N   3.02972088156766      4.99961526600655     -0.04207716827507
  C   1.66835254768448      5.07267402655960     -0.04015331191177
  N   0.96075113282395      6.14729553132838     -0.03924332195210
  N   0.96815902770587      3.86982267089711     -0.03921367756475
  N   1.50199776529323      2.64210271181345     -0.03978386201675
  C   2.81142713523984      2.58660870530315     -0.04149033974374
  H   6.63401475507025     -0.09452287024859     -0.04854158968660
  H   6.72787092390287      2.34354490852713     -0.04900996045418
  H   6.76311857104038      4.56381200534826     -0.04881197686945
  H   1.60738721208446      6.93105832361767     -0.04017625545365
  H   -0.03620990266711      3.91598750103478     -0.03786960060897
