21
Coordinates from ORCA-job 6723opt
  Br  2.48323929814053      1.40292403573192      2.12394370386775
  C   3.83723284980575      0.66321948283033      1.04541694831899
  C   4.80794930177624      1.39134903481893      0.46980177746709
  C   5.77641425295337      0.60047417919263     -0.32367479841573
  C   5.36539233196877     -0.79635202720672     -0.51353923540710
  N   4.41188748153625     -1.40569762316666      0.06564380836536
  O   3.64845167145603     -0.67112098177711      0.95707941809925
  N   6.88663984255605      0.93588665306377     -0.86683452932634
  C   7.32522142349685      2.24516379748075     -0.56792962417439
  C   6.86073100319080      3.35644183377866     -1.12324733671159
  O   6.97391889222983      4.54492286823414     -0.46724480106133
  C   6.32762080073502      4.65435023926824      0.81496529707595
  O   6.57806038090687      5.65642923829578      1.42481124291081
  N   5.66961734736199      3.55086014083557      1.22106275684192
  C   4.79942800030269      2.88646891922601      0.47920378721263
  C   3.88015622524317      3.49157642805955     -0.44405740251233
  O   3.82221772384291      4.69737673907820     -0.68599184345585
  H   5.94626497242388     -1.40130482412515     -1.20041512726997
  H   7.91935363278809      2.32576551772037      0.33756248227735
  H   6.24054045455655      3.36396025896933     -2.01411236590610
  H   3.20466211272793      2.78030608969129     -0.95944415819635
