21
Coordinates from ORCA-job 6724optt
  Br  2.74994212192167      1.84599417310536      2.05710930341393
  C   4.07263560239921      0.86712325001624      1.11594099478451
  C   5.11128869010885      1.43617043267101      0.46619381864205
  C   5.92985424600252      0.48424938911293     -0.28728669369567
  C   5.28871767813848     -0.73950055340704     -0.58150196914652
  N   4.24467934632313     -1.22740712243675      0.01365218303709
  O   3.82546068483826     -0.45218505140989      1.14624652727917
  N   7.13183111080770      0.82757556886597     -0.81266227156587
  C   7.74129246946075      1.67697494904687     -0.02878786175086
  N   8.63140518523928      2.60779847774528     -0.36153027058814
  C   8.56418698107018      3.70267762225208      0.38370414216362
  O   9.30105840065572      4.62864991207007      0.54371028451713
  O   7.25520445217840      3.80038568512702      1.14814192236261
  C   6.11408018993720      3.85231598338045      0.45882742388116
  C   5.17218770819852      2.90686179857989      0.22762825681692
  C   3.99654081473086      3.41319217932690     -0.53682196987293
  O   3.72702836114416      4.56927676460337     -0.75208563322673
  H   5.66147522673939     -1.35469629258566     -1.39362206509661
  H   7.44679102953052      1.64731865991797      1.02497629580772
  H   5.88645199975422      4.83335648245002      0.04347510188868
  H   3.34588770082089      2.60986769156791     -0.93230751965126
