20
Coordinates from ORCA-job 6725optt
  Br  1.79405419541480     -0.60898771358324      1.44316056621173
  C   2.97396358789030     -0.15570946263395     -0.10247035550636
  C   3.57474780429596      1.13664299814237     -0.11802858223582
  C   4.98103541605271      1.18455569579765     -0.11294480111257
  C   5.65592785518476     -0.11251122309075     -0.15276248578717
  N   5.10408023461842     -1.24515482030347     -0.31751419161713
  O   3.70237207433697     -1.23585560138130     -0.44867286654910
  N   5.74700468043747      2.24653581879302     -0.05225676862776
  C   5.16348705715502      3.49803514382324      0.03549393504104
  O   5.83480112767624      4.51404696827770      0.08862605662063
  C   3.67531633359437      3.54061342556867      0.04380757086052
  C   2.91738521023086      2.39176505243738     -0.07190466221025
  C   1.47402674275416      2.57410050321650     -0.27243003272373
  N   0.56645398804025      1.76738398733060     -0.65111346041141
  N   1.09975826370213      3.88861136648203     -0.03626045353853
  N   1.88272563984872      4.96291683001518      0.13841755837231
  N   3.12598438565346      4.81154429948783      0.15454616937746
  H   6.73608837672228     -0.12856234120050     -0.05927703823208
  H   0.93306040740558      0.82858512230283     -0.76512487196534
  H   0.11772661898549      4.10044395051818     -0.12329128596642
