22
Coordinates from ORCA-job 6730optt
  Br  1.25662681463068      0.48544112738984      1.02227792686017
  C   2.88642618832383     -0.06741406120520      0.01872948726599
  C   3.51226049525499     -1.27141131458312      0.36582395082548
  C   2.76669970743531     -2.50653679375955      0.78342207259152
  C   2.77232375477456     -3.54382460785064     -0.30545217695701
  N   1.80270108968029     -3.98334940924340     -0.97537817834038
  O   4.00367613652727     -4.04446840290610     -0.63669358548972
  C   5.12031534199848     -3.76122348780501      0.07922245916213
  C   6.10228723398504     -4.62233270454243      0.46749524241290
  N   7.16083936016869     -3.91629391797516      0.98424297108594
  C   6.82155271752503     -2.65825742644340      0.90529745766638
  N   5.57807182340127     -2.49050549624818      0.35908499412359
  C   4.88525095101593     -1.25789396770857      0.24270167047551
  N   5.65991540170924     -0.18557367116760      0.06652997024997
  C   5.05951133759634      0.99687611155624     -0.12186125532370
  O   5.56492750140045      2.08516009363261     -0.19028823965553
  O   3.63564139371521      0.98548148003261     -0.33161071399786
  H   1.73649462721140     -2.25675582760438      1.02400386548375
  H   3.22975187697491     -2.93985920571787      1.67630592170071
  H   0.94773444344995     -3.52537639545622     -0.67415319988879
  H   6.10415914455718     -5.69457989936903      0.36889853160961
  H   7.39383265866387     -1.80230222302539      1.22040082813932
