25
Coordinates from ORCA-job 6732optt
  Br  1.04665936706901      0.15870669168841     -0.00975806881465
  C   2.94440565003684      0.04184652942547      0.07564665775183
  C   3.66534215398472     -1.15637084921333      0.14776488924389
  C   3.00483892386241     -2.50124130646624      0.27885701235736
  C   3.67902640416743     -3.54840537380364     -0.57673002849637
  N   3.09636428285964     -4.46044601172029     -1.24057373775514
  O   5.01100092854866     -3.49784450544807     -0.60578844072095
  C   5.68539772278545     -2.52330747425332      0.21838287588116
  C   5.05364578138786     -1.16147830227969      0.15003613555449
  C   5.84661577320995      0.03535890562791      0.12439430633364
  C   7.26098140919583      0.08526830943128      0.23361400581564
  O   8.03709414191435     -0.87819689529423      0.41848232007527
  C   5.08269907736778      1.24853459064752      0.02507597345598
  C   3.68819327317576      1.22474752348749      0.00104611459566
  N   3.29803899787596      2.53643399278448     -0.08224091823236
  C   4.44295106061834      3.28909189736482     -0.10384238272620
  N   5.51951738819165      2.55617861393410     -0.04127804414480
  H   1.94640864507356     -2.46592853087673      0.03316344691891
  H   3.08825673154405     -2.83718447238098      1.32142176065393
  H   2.09163270944631     -4.35721065869943     -1.13922263417774
  H   6.70951192374750     -2.49492913791899     -0.13031017442879
  H   5.69376332641760     -2.90964183132199      1.24620121434749
  H   7.67537096329479      1.10334385682834      0.15190397232117
  H   2.34708105539902      2.85932535124393     -0.11615532837757
  H   4.41320230882545      4.36534908721318     -0.16809092743186
