27
Coordinates from ORCA-job 6735optt
  Br  0.87249199937386     -0.27390330526518     -0.80574566400319
  C   2.87829408794316     -0.10674064687367      0.52790773760769
  C   3.64422775551236     -1.23717498210108      0.55079830484692
  C   2.99696741032775     -2.59599037816450      0.60840479882286
  C   3.33988090626986     -3.43733422537076     -0.60135806044561
  N   2.63318279616327     -3.61765556352178     -1.62340944329350
  O   4.54680721395007     -4.09394845409331     -0.52450538819929
  C   5.71035513006740     -3.27402202664608     -0.57896984806831
  C   5.88801523610617     -2.34555804444132      0.62832874061087
  C   5.05608566100124     -1.09895877190598      0.51118762869494
  C   5.60644387759818      0.13991397840155      0.33703433588361
  N   7.00505684642511      0.38087044116660      0.29528156292920
  C   7.89043808897907     -0.11321536176417     -0.60345540616107
  O   7.66829347326976     -0.94850103051252     -1.44890375102981
  C   4.77288882019593      1.31967545233766      0.23227303252722
  N   5.11498750648771      2.53330722504917      0.03360988135770
  O   3.43119122003140      1.10274491570295      0.42831709348443
  H   1.91958595392304     -2.45159000901543      0.64810091288267
  H   3.30933805253434     -3.14696844096564      1.50102062073126
  H   1.77113017091333     -3.07660397992235     -1.53626879090248
  H   5.71108475899056     -2.68498199920449     -1.49887232209971
  H   6.54133543203947     -3.97671472777764     -0.61921339316789
  H   6.94302738486543     -2.09721966417280      0.71843500051574
  H   5.59586824815514     -2.89633255706536      1.52728675490998
  H   7.35548931438992      1.10861347972867      0.90238459465047
  H   8.89433090466176      0.32521761820663     -0.46271029499899
  H   6.11220174982430      2.58507105819090     -0.14595863808571
