30
Coordinates from ORCA-job 6737optt
  Br  1.41647322935114      1.22500803388074      3.05511605927400
  C   2.27604991823058      0.88997946620479      1.35722357255559
  C   3.18296081608338      1.78230961174464      0.84718465551530
  C   3.14573879101609      3.23141847009428      1.25223764014890
  C   2.11044018254478      3.88745039795240      0.35523969736475
  N   2.38442107977963      4.86923061238632     -0.38911071959073
  O   0.89579456591148      3.28409407870979      0.48468980662288
  C   0.09600726670600      2.96804106760119     -0.65408353355542
  C   0.10180918228584      1.46475688703887     -0.92408202202155
  C   -0.46146820325817      0.61542539076178      0.23502849350811
  C   0.39607756806657     -0.62266941952897      0.62573054421541
  C   1.85496336905298     -0.25644355555719      0.65135124778076
  N   2.60921691216657     -0.67266142308643     -0.40214408930222
  C   3.62193863440886      0.05317239767195     -0.80091936658473
  C   3.90397091979766      1.37386741627000     -0.32889279891343
  C   4.81817835629603      2.19471542762925     -1.05104450592042
  O   5.47863031278379      1.82987672336593     -2.04430267632844
  H   4.09148899112043      3.74930447157127      1.11734969724694
  H   2.82347496418685      3.33945187134292      2.28726768144710
  H   1.56741182908483      5.17422150958348     -0.91718442489075
  H   -0.91457377252035      3.32303746053981     -0.43508165484505
  H   0.46650982525542      3.50366061925292     -1.53219122278987
  H   1.12819512287639      1.17556992273669     -1.15569507243413
  H   -0.47632454868498      1.30191846189866     -1.83855939850974
  H   -1.47958218352392      0.28913265893746      0.00113755808015
  H   -0.53852595953908      1.25422163448804      1.11638097277350
  H   0.28292111275242     -1.41377637294524     -0.11762251162602
  H   0.02271289657404     -1.00151360173781      1.58183865984076
  H   4.21891238095875     -0.32670521063754     -1.62258928951802
  H   4.93117644023596      3.23190499182997     -0.69427299954363
