27
Coordinates from ORCA-job 6744optt
  Br  1.60164267599007     -1.52715248113524     -1.23772184042735
  C   2.22941104753648     -0.03838716681144     -0.14931146874393
  C   3.01402265502505      0.91546816189187     -0.72976437654152
  C   2.68375148130702      1.55940195996324     -2.03840711060718
  C   1.62075108594730      2.61764412351727     -1.76752421118374
  N   1.69837489673310      3.86656171389710     -1.96994700474887
  O   0.53091761749078      2.06579778165644     -1.20210001194958
  C   -0.49471892058862      2.94241486017588     -0.73666370348959
  C   -0.21836661620090      3.55413336442594      0.63776879868538
  O   -0.85849789867427      2.88875226514588      1.71933722155439
  C   -0.39753987795231      1.61073785455260      2.05683112105243
  O   0.91310137792418      1.59801550000392      2.57213121097549
  C   1.86181830981842      1.23958044317913      1.64547953495333
  N   1.73935982107553      0.02980053455456      1.07209223431096
  C   2.84056319633265      2.20190323083787      1.26906868454353
  N   3.07113247214349      3.32571809051541      1.84834681261211
  O   3.60707780389006      1.80861839939072      0.17835136924356
  H   2.27624682843187      0.81436079705220     -2.72207073565323
  H   3.54462728457449      2.04458226117318     -2.50319061124688
  H   2.59920450493838      4.08777661197503     -2.38214897163705
  H   -1.39379071935082      2.32722178192561     -0.68874974875837
  H   -0.63463846024040      3.73601552045884     -1.47049103785364
  H   -0.64280314331236      4.55860429227589      0.65309115898198
  H   0.85467103678777      3.64949751097370      0.81498135563726
  H   -1.05975745145180      1.27629829814099      2.85371859810434
  H   -0.44709665287578      0.93050196762567      1.20042053855125
  H   3.79353564470056      3.81413232263766      1.32247219363492
