26
Coordinates from ORCA-job 6750optt
  Br  2.35120275729860     -1.32957073022258      2.84361386567567
  C   3.19387541927614     -0.22290224663653      1.54385342644273
  C   3.06573477298583      1.11742402892480      1.47904417065174
  C   2.25842391531187      1.94247667931198      2.44278434472678
  C   0.88672948109030      2.28957400515746      1.90194357800115
  N   -0.22938696270937      2.16136528289896      2.46145305225732
  O   0.93868690428593      2.92586324171884      0.67523816358765
  C   1.11415688222819      2.12838410066886     -0.43236384561953
  O   0.74033941756348      1.00077954639686     -0.47640300207384
  C   1.73059041228231      2.92459386724924     -1.57169416473185
  N   2.52333661761980      2.09351137039847     -2.45600217208859
  C   3.89142641216229      1.82857073547498     -1.96091740738732
  C   3.87235229053037      1.05327145452100     -0.68324881409385
  N   3.55294494365527      1.79373242644058      0.40270296134098
  C   3.94917136099227     -0.36996541312680     -0.66958169461773
  N   4.13631124775429     -1.23406548284465     -1.59974704007734
  O   3.88398678122909     -0.93522508494961      0.62074496855327
  H   2.78965873394811      2.88930983606932      2.57716140393309
  H   2.14352930947851      1.45488739840941      3.40873251060501
  H   -0.10054596003930      1.71344062086358      3.36671827356589
  H   0.89319202289267      3.34346413873404     -2.13836299796903
  H   2.29333801256923      3.74965447365185     -1.12027569740723
  H   2.57248736539669      2.53229415839197     -3.36640550308359
  H   4.41900134863884      2.77426205697203     -1.76311599057869
  H   4.42314094240523      1.30071206778924     -2.75435997602467
  H   4.18031557115331     -0.75484253226337     -2.49351241358802
