23
Coordinates from ORCA-job 6751optt
  Br  1.29631790087360      0.18950200572725     -0.33107127997915
  C   3.16463296120198     -0.04367877318798     -0.12643106435677
  C   3.78579613723398     -1.22087027443700     -0.35513861969791
  C   3.04658793748211     -2.42027328500119     -0.90857288361491
  C   2.39949953794517     -3.41746556173929      0.06876126121832
  N   1.22945021800619     -3.87995908054890     -0.07478981878050
  O   3.11545110521384     -3.85434019667208      1.12111477870748
  C   4.40688520510085     -3.29677778938724      1.26746304101454
  O   4.65590373360701     -2.64678814360104      2.27398028852946
  C   5.23818016254510     -3.50541656948087      0.11288493104346
  O   5.28703336328626     -4.45068456289357     -0.66339387570748
  O   5.95750919444209     -2.32013760591939     -0.22295013754693
  C   5.22848570205225     -1.19248843836615     -0.10748160385844
  C   5.87518578261997     -0.04844404440216      0.23123861916482
  C   5.18442192349976      1.19712396956438      0.41043089951770
  N   5.64473533859736      2.35763638182777      0.72374672061809
  N   3.80583316530178      1.09645610484551      0.24503928022132
  H   3.71925380871862     -2.98650696607491     -1.55475783025559
  H   2.23754863959013     -2.06178931688194     -1.54322369898309
  H   0.78922439761047     -3.45127250793896     -0.88296986916762
  H   6.93585065035039     -0.08975250700034      0.43172819436030
  H   6.65204173131208      2.30565487298042      0.83336700478857
  H   3.28117140340893      1.93827228858769      0.42402566276434
