22
Coordinates from ORCA-job 6757optt
  Br  4.57377767849091     -0.35563085025051      3.17928582663466
  C   4.33490986788437     -0.58232788578701      1.32236074765740
  C   5.40124268612900     -0.50318172577164      0.45208616270861
  C   5.16892780077925     -0.59287827860102     -0.94278573170749
  C   6.12114115755215     -0.59084985889525     -2.03403410203553
  N   5.68805426035511     -0.58441215104544     -3.24646246613704
  S   2.57324628050690     -1.13239661265661      0.87075789355595
  O   1.75586047524169     -0.24203961193743      1.71692336508550
  O   2.67580217287676     -2.51270496547981      1.40160555984583
  N   7.50461188067384     -0.52839634875846     -1.72978984216172
  C   8.01445938150153     -1.53473293491619     -1.16674629971277
  N   9.30637771754050     -1.51762165616065     -0.64739908040715
  C   9.60873962188496     -1.42002908493810      0.56911404387970
  O   8.84240317014268     -1.31472067516904      1.67637984878806
  C   7.45223137956067     -1.34282920716151      1.52046159339470
  C   6.80520948608064     -0.36285138335913      0.92251586235436
  H   4.14084138605746     -0.65220896327364     -1.27165196734466
  H   6.48529655601508     -0.55893006096547     -3.88229699798754
  H   7.48871176106398     -2.49092992932151     -1.07137918664715
  H   10.65405624945845     -1.41646427807766      0.86428485990210
  H   6.99599407242213     -2.25631313734149      1.88004368376270
  H   7.37210495778150      0.49844959986763      0.58572622657150
