24
Coordinates from ORCA-job 6760optt
  Br  0.64177103379186     -0.29863651851535      0.34081570210798
  C   2.98623970371768     -0.08399233720464      0.56967798353612
  C   3.68422270176440      1.00648595108588      0.23529544427197
  C   4.96119998900553      1.06235679490711     -0.47089042143105
  C   5.40213089617792      2.30892165875967     -0.70791988004908
  N   4.56744401200767      3.34222489164204     -0.19374878940327
  S   3.32013508171128      2.66404828355320      0.72621686655655
  O   3.61572577721490      2.84303366595853      2.11671045855227
  O   2.09575158071689      3.21442822423698      0.21707837604115
  N   5.67555020024318     -0.08328656315633     -0.80068362816127
  C   5.19244922424981     -1.23854326634381     -0.56650927577139
  S   3.63673724720149     -1.63581024922828      0.15609660130205
  C   5.98244802033692     -2.44422064429402     -0.94686080369437
  C   6.67433542719797     -2.45017995943362     -2.26133389583356
  C   7.49506430468537     -2.28936730030280     -1.01274210083310
  C   8.29767681715365     -3.43786763414900     -0.55911723860118
  O   8.05059249535798     -4.58950972120113     -0.81835432243324
  H   6.33575540747866      2.57019481613687     -1.18173721010582
  H   4.14814308630972      3.93781630010365     -0.90066952529263
  H   5.62919583943058     -3.39750031146747     -0.57574099017426
  H   6.55554916347969     -1.56260013719385     -2.86596821524084
  H   6.76849339017041     -3.40190139995104     -2.76587106580249
  H   7.85504966335643     -1.29811334172899     -0.77679234736931
  H   9.17633893723975     -3.18798120221360      0.06504827782879
