20
Coordinates from ORCA-job 6761optt
  Br  1.06026730340024      0.41464480328111     -0.25562708715329
  C   2.94286563847725      0.23248167643216     -0.27474655342173
  C   3.75125976809015      1.24329248961785      0.02772339640343
  C   5.22112515011895      1.14641274525347      0.06046653070018
  C   5.78195332278428      2.34961948370204      0.33848138054795
  N   4.86615453405784      3.44612364174120      0.51906063975204
  S   3.32237207589357      2.83282039687890      0.65965035359356
  O   2.97266620173988      2.69484927264688      2.04004695873479
  O   2.46595418958023      3.60754672574950     -0.19632771194636
  N   5.88483999768747     -0.02052972356220     -0.09965556478235
  C   5.26161551081648     -1.14261501801988     -0.41509978846877
  S   3.49296667418568     -1.35330489569222     -0.70268435057883
  C   5.96325874759298     -2.34337281704523     -0.58458119494335
  N   5.42997587486174     -3.52746572623681     -0.91972798069305
  C   6.41624762975598     -4.43458794720502     -0.98330295334734
  N   7.66523593334115     -4.11109878103784     -0.74021462095406
  S   7.68681601808637     -2.48124242337743     -0.37923627526235
  H   6.83341461057857      2.52360216714085      0.49943650835996
  H   4.86072301194417      4.10971754765562     -0.25066169925291
  H   6.17928780700692     -5.46089361792297     -1.24099998728754
