26
Coordinates from ORCA-job 6762optt
  Br  1.13155246990216      0.40820986450464     -0.20706855826850
  C   3.05385577444841      0.31011474500434     -0.33793210585078
  C   3.66485387216171     -0.92892656368511     -0.69387296068536
  C   2.79189038007252     -2.07535514057485     -1.14163919376297
  C   2.29589031575046     -2.98494366191171     -0.01617208077428
  N   3.32213571280476     -3.93718484045818      0.45504824321052
  S   4.45364421367638     -3.48929672534592      1.56606133455493
  O   4.05190128503641     -2.28727255322380      2.22995414720945
  O   4.72528439296311     -4.67714378383958      2.34058961856331
  C   5.92035194651992     -3.16510190689622      0.60167613918543
  C   5.70228158124811     -2.45136638426824     -0.73234606782027
  C   5.06219924312796     -1.08630706988116     -0.60331093727712
  C   5.92723354979414     -0.06349496662256     -0.30028536745646
  S   5.46947343083511      1.59103673569089     -0.05631225013164
  C   3.64846473613028      1.53536025968006      0.00186291738249
  O   3.12515333716986      2.60071802518331      0.30938093285956
  H   3.30308583265001     -2.69543957051305     -1.88012937319092
  H   1.90946855110977     -1.67247394698786     -1.63776871863838
  H   1.47512336805372     -3.60601401975869     -0.38223692369070
  H   1.92513346257413     -2.37743314757367      0.81121602712890
  H   2.96498259398228     -4.84206768335791      0.72912189451492
  H   6.37722689719425     -4.14496331608352      0.46020031371736
  H   6.54046659895235     -2.56607794346076      1.27069213257541
  H   5.13676647791074     -3.11369536818709     -1.38504120523507
  H   6.69292709373323     -2.33934131434722     -1.18127583880887
  H   6.98865288219818     -0.25153972308612     -0.19341211931098
