27
Coordinates from ORCA-job 6765optt
  Br  3.13718508996025      0.60098456276846      0.43862254022523
  C   3.73185800716319     -2.10446497076596      1.23451211818875
  C   4.24544596040468     -0.87149725563785      0.93137677153837
  C   5.66958803966419     -0.57534003131726      1.33231722445008
  C   5.92721545937116     -0.84695611840122      2.84489013784107
  O   4.86037811376603     -4.06675260141256      2.17327606250574
  C   4.60793771688490     -2.87887436148638      2.15318337213094
  C   4.97314142991719     -1.91728393828996      3.34399051273941
  N   3.72070077687926     -1.35099575219328      3.85798314925396
  C   3.10215960950667     -2.43205947774606      4.46853244861051
  C   4.26475423397374     -3.16471316202216      5.12098413062304
  O   5.42718392493184     -2.64300927632422      4.46306162473128
  C   1.82702918921810     -2.81871807514921      4.31505980692480
  C   0.87927783103985     -2.23991719001387      3.28996826573501
  N   -0.38391284496931     -2.12999457634453      3.49796398349311
  N   1.48915026698351     -1.79009286300629      2.13363922906351
  C   2.42588239381899     -2.56104385602116      1.62018660586340
  H   5.94073368345771      0.44803648733832      1.08088601181764
  H   6.32507623163712     -1.23546387724875      0.75490647119392
  H   6.95217823218714     -1.18961224344732      2.99839454672192
  H   5.77098892808099      0.05306358816915      3.44224154486207
  H   3.13576885902235     -0.86546757458846      3.18469750259069
  H   4.19133887364514     -4.23976039061180      4.95210725766089
  H   4.35838593098836     -2.95482429887272      6.18815681757783
  H   1.45975035479454     -3.64832582366881      4.91013833852264
  H   -0.58625471776772     -2.42442303852491      4.45129972009832
  H   2.38005842544005     -3.64149388518115      1.76962380503582
