25
Coordinates from ORCA-job 6771optt
  Br  -0.59330868395687     -0.01159784509990     -0.56745748484234
  C   1.08045403920650     -0.05758591660057     -1.50876370770314
  C   2.14320334956866     -0.78694596501639     -0.92475099937492
  C   3.48673031760328     -0.48092863079905     -1.49959949121246
  C   3.32949758940628     -0.65498291199726     -3.01835061580886
  O   2.28685262427991      0.14742412649350     -3.52848287753085
  C   1.09492557618472      0.30210195542493     -2.83955173370011
  C   0.00114186436358      0.45026496976356     -3.72694986010744
  C   -0.20754753350827     -0.70175746931603     -4.58732542486606
  N   -1.05933934355173     -0.87559261387952     -5.53301271080821
  N   0.61096695807615     -1.85246698975723     -4.21933849219686
  C   0.37260855830429     -2.25814966715672     -3.06300512817872
  O   1.13990594619902     -3.23293851555849     -2.45668690035031
  C   1.54444497570179     -3.10503282215186     -1.14171285132609
  N   1.98005130706523     -2.12837367444682     -0.47977792443474
  C   4.57207007122905     -0.24640676146129     -3.76633011331311
  O   5.65414049205985     -0.73358473199221     -3.57382818827385
  H   4.25458836325803     -1.16035927142445     -1.13250409030717
  H   3.78355973536631      0.54882496664113     -1.28668688896937
  H   3.12571289204075     -1.71001030267459     -3.24284047473548
  H   -0.87886032159845      1.00110598053553     -3.43018211335247
  H   -1.51913192610048      0.01563081773048     -5.71098380038687
  H   -0.44896405098053     -1.92074261980647     -2.43151136002844
  H   1.53416038026348     -4.09057538445340     -0.68372998634936
  H   4.42213681951939      0.56267927700312     -4.50663678184268
