23
Coordinates from ORCA-job 6773optt
  Br  5.81627488811725     -2.63707231534949      1.59102870907900
  C   5.47183831829070     -1.07605038925305      0.55105134771652
  C   6.47764724024719     -0.08206288372941      0.39800636269199
  C   5.96503336977926      1.26039812421814      0.58122476789899
  C   4.64016594805736      1.46737136613512      0.56083768068569
  O   3.72852542199286      0.51421177188322      0.26387119803265
  C   4.17249615460446     -0.79244505632170      0.09294434747531
  C   3.36190100670709     -1.66359479365627     -0.57758189584698
  C   3.88361910132394     -2.77072355274754     -1.37834205194424
  N   3.36709936875530     -3.90630043181504     -1.59472827545048
  O   5.01261330952500     -2.46322402701464     -2.16849088659341
  C   6.19340388239878     -2.42754408567679     -1.51583685923704
  N   7.07891040307598     -1.57709226598697     -1.78944687291453
  C   8.04841986718507     -1.25330847842758     -0.83447504778188
  C   9.42407386317583     -1.64436359529473     -0.97064600777926
  O   9.86572518685188     -2.44274018904714     -1.79137485967958
  N   7.74413396008914     -0.30149339654300      0.07100714278198
  H   6.64850623680145      2.08929505576908      0.70443101455389
  H   4.17192052407035      2.42679389477341      0.72848137688721
  H   2.30042066599796     -1.46932704491750     -0.65856750573849
  H   2.56013258486127     -4.01473567917883     -0.98413751686729
  H   6.30783829742624     -3.22195725304024     -0.78152522753781
  H   10.08330040066554     -1.15003477477901     -0.23473094043226
