27
Coordinates from ORCA-job 6774optt
  Br  1.17773293255704     -1.15820082829231      2.07757153679204
  C   2.19515999585274      0.19172816781236      1.16892046521318
  C   3.29976618736909      0.72183613362468      1.88180589366120
  C   4.30408571685724      1.45437677983187      1.03805914572559
  C   3.58120126205522      2.18327419664715     -0.09433555972016
  O   2.74223963179586      1.31100607818190     -0.82881815123770
  C   1.77003126233584      0.65629096181156     -0.07627436211725
  C   0.51614365072333      0.61832699496051     -0.69937456461345
  C   -0.77293893794944      0.68969778212058     -0.10973383906448
  O   -1.84206675061021      0.62090604023018     -0.73283942799524
  C   -0.93194886255055      0.94746428640446      1.37652110693648
  N   -0.53443539273768      2.00042832056074      1.95074016546884
  C   -0.61148845363796      2.06770598338153      3.36883594316749
  N   -1.66954561261521      2.28400486979920      4.04541610479328
  C   0.69425664250691      1.75257738906553      3.98215116035773
  C   1.77649684211547      1.84852050410062      3.19676789423985
  N   3.02480258881793      1.23617894464559      3.22268814842755
  H   5.02308863515353      0.75689047187219      0.59582360080486
  H   4.85449678985712      2.17188945692947      1.64858707531093
  H   2.97416431549110      3.00115086197853      0.31365230895935
  H   4.28225071250807      2.60040820426642     -0.81867641891001
  H   0.52001101333265      0.74901019982186     -1.77586354649932
  H   -1.46213318941327      0.16159433576019      1.92682436423386
  H   -2.46397783960574      2.36854975899369      3.41101835343196
  H   0.68017370812148      1.24445173151176      4.93822174874284
  H   1.64134746974185      2.40371359832739      2.27972275859765
  H   3.13808568192748      0.55921877565228      3.96658809529285
