23
Coordinates from ORCA-job 6775optt
  Br  4.98941747142126     -2.22491035752057      1.57495875623821
  C   5.45747194026471     -0.39015216340025      1.13145304354536
  C   6.43755168625887      0.12883352092679      0.41241038345532
  C   5.00682774762859      0.48592306901618     -0.04792608470088
  C   4.66561441670657     -0.19214001411602     -1.24570535254667
  O   3.86981668316121      0.19831848269608     -2.16212961673534
  C   3.01597496592815      1.35100039278773     -2.10330248459869
  C   3.68458692369173      2.46566413540732     -2.49883677144277
  N   5.04760904505629      2.51761213319884     -2.71421572008667
  C   5.62212943708530      3.61586786621662     -2.99882830251233
  C   7.08953119020135      3.70007692622743     -3.19375643558807
  O   7.60963724837972      4.60429469286103     -3.78753075273048
  O   7.87425352276622      2.69822041759746     -2.71122251481582
  C   7.49071284976398      1.93911191413771     -1.63987388431295
  C   8.09491227400478      0.79433176979676     -1.35572090872268
  C   7.76227698319924      0.00622214414307     -0.14451740868212
  O   8.61192983052931     -0.70981271907699      0.37441182131316
  H   4.54892905454994      1.45041125338826      0.13844537788774
  H   5.10342191481349     -1.17078807801150     -1.42562974580049
  H   3.11926044644024      3.39410778025545     -2.57808347346119
  H   5.09569749854207      4.55973824933867     -3.16328967095436
  H   6.71561441091244      2.35649858929009     -1.01581304756925
  H   8.90582245869440      0.42156999483980     -1.96829720717897
