24
Coordinates from ORCA-job 6776optt
  Br  0.69179270093200      0.18274756680577      1.24857412679288
  C   2.30435976736064      1.16741136328149      1.31733037832537
  C   2.95459374977233      1.78650604207476      0.22340105834288
  C   4.41668073087835      1.71454143916857      0.38245079965727
  C   4.99457385995582      1.16607468877638      1.46106330922518
  O   4.30920557114835      0.78086594632959      2.58472902022027
  C   3.01798931716950      1.34931520128876      2.56439502985308
  C   2.74322874729312      2.26100064196322      3.50471850130732
  N   1.70244620354098      3.22064019240549      3.47369549139186
  C   1.08712098026645      3.48794953928316      2.22966343608020
  C   1.22774207812954      4.58272845482979      1.48454420105725
  S   0.62079203925533      4.59446275315650     -0.21022631228738
  O   1.43530967219728      5.60533935009790     -0.85440206058447
  O   -0.81407492994992      4.77978307563402     -0.19354878008899
  C   1.00306997590775      3.01211940632302     -0.73734557756191
  C   2.37126892645885      2.67368212794030     -0.67878450889111
  H   5.05500998295987      2.06400780442287     -0.41901838003729
  H   6.05565896540501      0.97796595429523      1.55149376880711
  H   3.39676905561188      2.34254930645742      4.36510353540329
  H   2.00705618200360      4.06499124076231      3.93779884912835
  H   0.45578213516716      2.68796432934472      1.87376522280247
  H   1.89199741976156      5.40216384243604      1.73547984618607
  H   0.26981954725657      2.32764636227553     -0.32978882044067
  H   3.06680732151795      3.31954337064711     -1.21109213468907
