24
Coordinates from ORCA-job 6784optt
  Br  5.59707229273033     -2.87690626339657      2.24432502556539
  C   5.11983641356061     -1.43646300412266      1.07483899896275
  C   5.96225852179310     -0.23900959192746      0.99085884324592
  C   6.07279839014911      0.52223693173368     -0.12340934592594
  C   6.03584232557917     -0.06386378736813     -1.50180880906732
  O   5.11828698551578     -0.70475934736323     -1.96676245871205
  C   3.95482992703708     -1.59465535351604      0.49130703470472
  N   2.89850798338763     -1.81578750332567     -0.06802382597519
  C   7.44360214409718      0.01429599003821     -1.95380638563042
  C   8.19442742436228     -1.15009778016781     -1.57126299277769
  C   7.83126247914813     -2.46811722243354     -1.95116931733669
  O   8.21512738951830     -3.51809720538644     -1.41291108663488
  C   8.87031548823450     -0.85021206722650     -0.29774760777688
  C   8.52705438739098     -1.46480805690761      0.82840845544054
  O   8.72647928910082     -0.84884245198635      2.07738545641078
  C   7.71882187600698     -0.12216566731604      2.60475204357957
  N   6.55643076629026      0.16476313710126      2.20928348034597
  H   6.64900226332963      1.43188917119603     -0.00418250491488
  H   2.06729876362799     -1.53373637707739      0.45182032600183
  H   7.91912527853753      0.95156657152964     -1.67396442204012
  H   7.15158109297884     -2.51137142816770     -2.81977799900848
  H   9.35824634551102      0.11849714488393     -0.20848436491194
  H   8.01904542774800     -2.41715057805717      0.87232443564127
  H   8.04674674436462      0.26479473926359      3.56700702081375
