25
Coordinates from ORCA-job 6785optt
  Br  1.11755373705173     -1.00307683752396     -0.91478310829031
  C   2.81719011702382     -0.23776908522987     -1.22361762822250
  C   3.28260715005069      0.85337903322762     -0.55619533871800
  C   4.65571136340255      1.21678099595359     -0.79207890549582
  C   5.52636961691637      0.25226928193200     -1.23537893566872
  O   5.02309882372982     -0.80740951148327     -1.96461819258804
  C   3.67314732283088     -0.96334519352375     -2.15793454653909
  N   3.25585677304616     -1.76698889461617     -3.05067197025677
  C   6.86094225001762      0.10409539198845     -0.78048648401968
  C   7.33777043645457      0.64403932408968      0.39823153237538
  N   6.56006124776527      1.15937954793894      1.43691157538236
  C   5.21683827018488      0.96348828095249      1.54503454370222
  N   4.45721804543773      1.90537836784748      2.08695677960904
  C   3.19712146940753      2.05713884230516      1.65869012517169
  C   2.57034417766384      1.60692347132213      0.49807197017496
  C   1.23158723173498      2.03123777070070      0.28827965155835
  C   0.11022194610130      2.43756132207657      0.10539064506969
  H   5.02603279270112      2.16729949329685     -0.44594602271975
  H   4.05828990422329     -2.17812914221657     -3.52367969081000
  H   7.54510015915654     -0.49343291746044     -1.37156770330452
  H   8.39752958302747      0.61610497191248      0.61659637693171
  H   6.87123223758174      2.01911562309360      1.87292688644586
  H   4.85480910526710     -0.02595557455159      1.28638949137359
  H   2.57759050640736      2.68296487273543      2.29632952975295
  H   -0.88922426718459      2.75595056523239     -0.05885058091461
