21
Coordinates from ORCA-job 6786optt
  Br  1.07085399512704     -0.24177386836020      0.10398050777265
  C   2.94285348630289      0.02181640768091      0.06846397393937
  C   3.54986308777192      1.26122726271218      0.05866305885845
  C   5.01156727376346      1.27241743985654      0.04795663472302
  C   5.68606546781650      0.07559477292145      0.04009930588094
  O   5.06474385083182     -1.12942986742929      0.04005828912227
  C   3.68724803471889     -1.22245316261705      0.05479109599840
  N   3.17431609645025     -2.38802600963193      0.05444671560036
  C   5.70024977575342      2.49846257958632      0.04826954431902
  N   5.11708273499728      3.70450466126164      0.05401884181581
  C   3.81228027780128      3.70368548653819      0.05765476052182
  C   2.95470090797362      2.57345075617485      0.05831930723557
  N   1.61006203336832      2.75669349290814      0.05337263876361
  C   1.10591884848376      3.94185862065261      0.05210525987902
  C   1.90935546643798      5.15647980463841      0.05729103434693
  O   1.48296471271496      6.28399312129485      0.06019414132188
  O   3.25344869898013      4.95752140874722      0.05966308483579
  H   6.76174312521767     -0.01347275843449      0.03179140685563
  H   3.92446982282165     -3.07513560263052      0.04298461881780
  H   6.78523264278378      2.48751381313413      0.04394580098091
  H   0.02997965988335      4.07207164099603      0.04692997841071
