23
Coordinates from ORCA-job 6798optt
  Br  5.01146497606597     -0.92434787807890      3.20852454537080
  C   5.40270330636679     -0.97145279894819      1.36184489692285
  C   6.72676610518250     -0.92337358653890      0.94687579761497
  C   6.84390058076397     -0.83472379580186     -0.53010628618565
  C   5.73969126407926     -1.46464728494503     -1.24859520945615
  O   4.46118753993480     -1.38288968359550     -0.89293321236302
  C   4.24876061929213     -1.03618974663644      0.47805754195870
  N   3.04266954717969     -0.87904504749563      0.83320216426683
  N   6.34830128471375     -2.19994446290286     -2.10859903299593
  C   7.59619031577521     -1.90536093490230     -1.34263071461621
  O   8.73177929374269     -1.45910675695233     -2.01141425106206
  C   9.75271714421266     -1.24014544913528     -1.05480348490525
  O   9.31878344460632     -0.37979402437938     -0.02862560934901
  C   9.03518736501636     -0.92339584831075      1.21842711027894
  C   10.16023242699979     -1.33064855039857      1.99364472389701
  O   11.32648363317693     -1.33575853274413      1.58677618582542
  N   7.80592898283829     -1.01743588278881      1.71734465943672
  H   7.09204328173769      0.15916353640774     -0.89638619437599
  H   2.43102425037604     -1.03429962823490      0.03563259753860
  H   7.84597873537073     -2.78255968321175     -0.73142932397091
  H   10.56845783438886     -0.75605994621298     -1.58500158999447
  H   10.07784510660279     -2.19035210402594     -0.61913573131943
  H   9.89790296157633     -1.67463191016721      3.00633041748326
