24
Coordinates from ORCA-job 6802optt
  Br  5.10313798595208      1.83666674461970     -1.92057365442912
  C   5.23760090588830      0.28973721982598     -0.80699296108372
  C   6.48756614356186     -0.37727735921557     -0.62363787725629
  C   6.13320214790573     -1.80526735550556     -0.27182945275877
  C   5.11829440748996     -1.72678499005157      0.81712567911092
  O   3.96234653057621     -1.07387646779106      0.74996296984932
  C   3.96244865072112     -0.05155150447520     -0.24275842273801
  O   2.88564378388044      0.45593364414608     -0.45102376375270
  C   5.88954378379915     -2.40687212919093      1.66558459031282
  N   6.91805762276807     -2.66046892116470      0.67702054814790
  C   8.23708031231080     -2.21756297523690      0.82151896353551
  C   9.06692712216357     -2.53381318171165     -0.16097415533959
  O   10.25830441287656     -1.90802787500563     -0.35623900053548
  C   10.26785606070830     -0.53268375292115     -0.46907814525915
  N   11.41635527493747      0.03474272554750     -0.40201399177660
  C   9.09526816017520      0.28729055562651     -0.73371102442562
  C   7.70183084062602      0.32182992568319     -0.80972040040717
  H   5.85281185278695     -2.37175977073421     -1.16392865713593
  H   5.85699124249974     -2.77326101061044      2.67985694849630
  H   8.50184768148833     -1.49688456854808      1.59320297229108
  H   8.80568912877959     -3.26871786162135     -0.91374649573324
  H   12.12365976419970     -0.67744736353159     -0.23108325688447
  H   9.50567715664903      1.27203795370191     -0.92062729916110
  H   7.43885902725554      1.33801831816473     -1.08033411306685
