21
Coordinates from ORCA-job 6805optt
  Br  1.30287532874978     -1.33366232676272     -0.75888053501145
  C   3.04600662280394     -0.75845715609824     -0.31647986478894
  C   4.10186583724721     -1.61365041951965     -0.06568207930078
  C   5.38624043384899     -1.00216507908759      0.23663933844612
  C   5.51610274834981      0.32752246812869      0.27249664389007
  O   4.46854156389413      1.13994413023202      0.03414294049736
  C   3.19364243654883      0.67048803800385     -0.26284414240200
  O   2.34270441534496      1.51052124711970     -0.44440793272796
  N   6.36864405225176     -1.95685770208704      0.46666411243170
  C   5.75862197161599     -3.08723019291260      0.32977692273709
  O   6.53191323900102     -4.18541950970981      0.51926693675635
  C   6.13096648576970     -5.47424100684085      0.42359654078178
  C   4.95177203621512     -6.03016535885464      0.16201484107793
  C   3.61531631211151     -5.45496150397685     -0.12596260646324
  O   2.68584726820308     -6.26073449807731     -0.30588906976020
  C   3.40805967225620     -4.05147514794416     -0.19514241143839
  C   4.33390114508554     -3.02153583486002     -0.00359516780671
  H   6.43146750996176      0.85763432238346      0.49052504867148
  H   6.98900353415034     -6.10621257088240      0.61547883030675
  H   4.95248755762817     -7.11332825877576      0.16140539480932
  H   2.38901982896212     -3.77601363947805     -0.42212374070629
