26
Coordinates from ORCA-job 6812optt
  Br  0.97163378115365      0.17146558158318      0.44507090604255
  C   2.85100564748431      0.03498809720692      0.23799209388910
  C   3.65271670055191      1.19194417750572      0.16996819725035
  C   5.02674876587659      1.08091553313060     -0.04414986023671
  C   5.59232611415807      2.45732574474888     -0.21246755364840
  O   4.53309622477111      3.33437887939435      0.17828667035472
  C   3.28769763928826      2.64301407401397      0.14440889263635
  C   2.36133882550637      3.16514667669796      1.25613733035222
  C   1.10466551502443      3.65141992828528      0.57107551153621
  N   0.01266013153504      4.08050030382377      1.04904475886694
  N   1.33135912292469      3.59077737587035     -0.78892230291148
  C   2.54587825135488      3.05075324163946     -1.15512739995680
  O   2.94161989337894      2.94442391052932     -2.28575366780067
  C   5.62828895427898     -0.14030778013648     -0.11147977182978
  N   4.83238800980359     -1.28387418291859      0.10937040387026
  C   3.41771477015907     -1.26711717866162      0.18566951893116
  N   2.73389297354744     -2.37257725647297      0.22415559358427
  H   5.86624433446930      2.66402299872900     -1.25282143646570
  H   6.45179402977839      2.66820941100372      0.42995354484904
  H   2.85092215515823      4.00382009591750      1.75302998853733
  H   2.12206332983524      2.39747973535910      1.98910026866970
  H   0.04280471083222      4.03529221361940      2.06433531000667
  H   0.62132697390262      3.84424099871638     -1.45900825264486
  H   6.68825498779755     -0.30747276820669     -0.23072082087431
  H   5.19977044612737     -2.15996362814217     -0.22342057243369
  H   3.36478771130169     -3.17080618323637      0.20627264942550
