25
Coordinates from ORCA-job 6818optt
  Br  1.32714510480605      0.02411584924404     -1.18843882962831
  C   3.17326293368274     -0.01430533238493     -0.62329662385939
  C   3.66995660361825     -1.23085885828176     -0.18857572827684
  C   3.08821229140340     -2.59537642248263      0.01778893648137
  C   4.37632283043308     -3.42008558496117      0.18618167443690
  O   5.41321740505480     -2.50946299550220      0.58717344654902
  C   5.02408923984693     -1.26103740240614      0.19859874325410
  C   5.76705527111572     -0.12465114471657      0.17092606383726
  C   7.19365455694375      0.32100065986431      0.39420420184533
  C   7.81968057241754      0.56594235890477     -0.99847059389504
  O   7.11994792717090      1.70240673697196     -1.44768621683110
  C   6.17385011861392      2.08437944091174     -0.28451466072091
  O   7.01999871768331      1.67125457597330      0.80244320820154
  C   5.74614889617993      3.48767448091656     -0.28878104892672
  O   6.47731202343134      4.43619490403401      0.01007581627922
  C   5.10914293294734      1.05719477374504     -0.27087983550122
  N   3.83684733024848      1.10889136478721     -0.70129274001188
  H   2.48994980251958     -2.94815237748817     -0.82317299297395
  H   2.46063169943078     -2.64167542797087      0.91435648264461
  H   4.67343224997996     -3.86995606185275     -0.76545739610552
  H   4.30734453410838     -4.19789843165364      0.94459980503908
  H   7.79437309283916     -0.24017851791313      1.10386532832277
  H   7.67378632830707     -0.28418926689577     -1.67346205864851
  H   8.88989859137767      0.78226316691280     -0.89509776580348
  H   4.69573894583980      3.62350951224399     -0.58408721570830
