20
Coordinates from ORCA-job 6820optt
  Br  0.78721247791149      0.18724709167809      0.03423697441254
  C   2.66106147846480     -0.06875235438658      0.04951189183872
  C   3.52286002955249      1.03891015309471      0.05793678251766
  C   3.30757538486410      2.46115680082680      0.05867735296934
  C   4.52675094104657      3.03752216302872      0.06833216254861
  O   5.53157197479498      2.11145445232482      0.07421178460732
  C   4.93095653497417      0.88769589429463      0.06787294546610
  C   5.52878585600047     -0.35944410390439      0.07076394320200
  C   6.85713646279260     -1.01415892183120      0.07884980209243
  N   8.02756740872128     -0.53659545702852      0.08428418540378
  C   6.59024310119124     -2.57749974094150      0.07772296778062
  O   7.47790216886628     -3.40907329555099      0.08588760474759
  C   5.15733396974412     -2.69341184526173      0.06591531086223
  C   4.61644021188209     -1.40718720151043      0.06297357836687
  C   3.20002503386554     -1.36532940806759      0.05227426515038
  N   2.61705192091974     -2.57753743823882      0.04657886038547
  S   3.79894484063349     -3.76410124741787      0.05482059491733
  H   2.35858216645278      2.97058427193660      0.05298446001952
  H   4.84367324163150      4.06592357237331      0.07214217898343
  H   7.98632479569022      0.48459661458193      0.08302235372806
