26
Coordinates from ORCA-job 6823optt
  Br  0.95028108275107     -0.19274663425068      0.27003613625683
  C   2.85855003152685     -0.06488457353776      0.04449888292173
  C   3.42749125821926      1.18078993493810     -0.19021416561984
  C   2.87232917757336      2.56338067418652     -0.36683759697368
  C   4.17757408616507      3.37953414073184     -0.35494218893758
  O   5.24960906570064      2.47098003950332     -0.62943044534461
  C   4.78411462242159      1.21583682332525     -0.38356178331797
  C   5.62627443828478      0.06641408629886     -0.36480730835299
  N   6.91880897101545      0.27487987094340     -0.65169471805126
  C   7.91589322719522     -0.58792964159802     -0.72909305564564
  N   7.89974882621385     -1.96078282940861     -0.36333419387252
  C   6.74397210279830     -2.73693914534822     -0.78448359859454
  C   5.54960326063814     -2.47207268113918      0.11609444912268
  C   4.88718612069702     -1.13564399170842     -0.06743649635611
  N   3.55948038033601     -1.16121360506269      0.11241908064947
  C   9.18785540897607     -0.10920758736334     -1.11546100269575
  N   10.25905691422210      0.21565193188860     -1.42654766229101
  H   2.19235988887406      2.86185292631822      0.43134046176530
  H   2.33239520185514      2.65269557924897     -1.31404015074273
  H   4.35013358398938      3.81536001370957      0.63356606382754
  H   4.21155791837139      4.17067471213439     -1.10205043472348
  H   8.76951173519920     -2.39943255521096     -0.62985598623173
  H   7.01633068250676     -3.79143423728093     -0.70483720197958
  H   6.47587254152359     -2.53320949287558     -1.83152600372355
  H   5.90098196239350     -2.57418575997268      1.15007183784806
  H   4.78102751055201     -3.22936799846998     -0.04387291893702
