22
Coordinates from ORCA-job 6825optt
  Br  0.96065788871521     -0.45239808582724      1.86873939341050
  C   2.70669985523321     -0.39207468154088      1.13572478593039
  C   3.10794240048282      0.72811233035691      0.36994350007668
  C   2.48601175155352      2.08966220443725      0.24157280435966
  C   3.30628404439635      2.65692218122827     -0.92393366647826
  O   4.56603005289719      1.97477766725238     -0.91304968974465
  C   4.31775393231642      0.77384435399260     -0.28178330685477
  C   5.25057101308744     -0.23009811121064     -0.07922066242367
  O   6.24887280307986     -0.65153809735077     -1.04467845402911
  C   6.42480452679070     -1.93032610755302     -0.72948132695241
  C   5.60388396712756     -2.42976813902308      0.21520438154727
  C   6.01316230392153     -3.76778606452304      0.30856926089115
  N   7.00325986384886     -4.02311665617375     -0.52740785029650
  O   7.27717239227923     -2.81051509165551     -1.20423629174600
  N   4.77052360670004     -1.39239960696909      0.61528369912224
  C   3.49157629531565     -1.56619664885878      1.19851324103000
  O   3.22335453812278     -2.67695199313727      1.66479792240119
  H   2.61386128776122      2.67354238463148      1.16212483229027
  H   1.41967838217682      2.05709474844492      0.01603856967877
  H   3.50753521992579      3.72516794358471     -0.85510432863648
  H   2.80532501035107      2.44213945252055     -1.87379126993326
  H   5.63303886391661     -4.56309398262598      0.92817445635699
