26
Coordinates from ORCA-job 6827optt
  Br  0.96294543491113      0.02578587319823     -0.44913907608462
  C   2.85947538578669      0.02857364794006     -0.20793744107260
  C   3.49629701955655     -1.18050806981483      0.00456797276129
  C   2.99289410150808     -2.59746415811986      0.12710692424025
  C   4.32147574689214     -3.36297791146824     -0.08989684629063
  O   5.37406332511372     -2.49063531702789      0.30959884823645
  C   4.89460808629398     -1.21105911137572      0.15136787018656
  C   5.61392203328313     -0.04945922553863      0.10899661668158
  O   6.96311479450878      0.08232418758570      0.21245206430757
  C   7.25859677751055      1.49680051850780      0.23353752925747
  C   5.95949711427862      2.28042765110912     -0.01165950315007
  C   5.56427305978932      3.14202618596361      1.16687255050483
  O   4.68691491625374      4.02022236173769      1.07181887974748
  C   4.94951064347892      1.17400128950609     -0.08101376840547
  C   3.56149381987828      1.22159099501906     -0.27984681448833
  C   2.38321221433488     -2.88780601910756      1.42887177285873
  C   1.89913388261660     -3.13827203903061      2.49724382067454
  H   2.27329183628609     -2.85030419076026     -0.65556890765752
  H   4.43428645893313     -3.58707566996578     -1.15562684249787
  H   4.39123757149336     -4.27738464742122      0.49493500273720
  H   8.01642439548438      1.68225169811513     -0.52824649214084
  H   7.67183033247346      1.74329439833080      1.21611566732778
  H   5.98256544952183      2.89411574324552     -0.92377313848687
  H   5.91521764032468      2.76298623403567      2.14577978384038
  H   3.06255245301667      2.16368566020914     -0.45784054919774
  H   1.47016550647117     -3.32514008487300      3.45128407611043
