23
Coordinates from ORCA-job 6850optt
  Br  0.88994714809588      0.24618242169221      0.12492579017028
  C   2.76894574491549      0.12609128516495     -0.09600131778819
  C   3.40379787565219     -1.11248789262315     -0.01896092890934
  C   2.92968224905997     -2.45703652410665      0.02892120659712
  C   4.02496855098033     -3.26831660651424      0.05692992897919
  O   5.17416596907487     -2.51255109706666      0.03307226192299
  C   4.80900126050470     -1.20377885317832     -0.00499661763055
  C   5.76194040175179     -0.19308585176529     -0.01808750099198
  C   5.42511095499064      1.17148625636972     -0.04357451765506
  O   6.17476782255884      2.13540989592227     -0.04451863989836
  S   3.63622877846115      1.63270604771166     -0.08193775826460
  C   4.22495792949522     -4.68356484787217      0.09685785091133
  C   3.37074991973156     -5.73072307546220      0.17563765067303
  N   4.15370130652683     -6.89663384375198      0.17018206650407
  C   5.49595292529304     -6.59355331410216      0.08780770076047
  N   6.54287665261418     -7.34132426510508      0.05216911206146
  N   5.51059699268437     -5.22184725678598      0.04671715290365
  H   1.89959090365144     -2.77309990719574      0.03577109446872
  H   6.81522836819692     -0.43596544208086      0.00426488931703
  H   2.29950142839967     -5.75265299913901      0.23986339824951
  H   3.80842506108594     -7.83579193935796      0.21059455910247
  H   6.28651740331214     -8.32134452104535      0.09614441046136
  H   6.35434435296277     -4.68111766970797     -0.02478179194460
