23
Coordinates from ORCA-job 6851optt
  Br  0.73388318150858     -0.95493984973537      0.99754423080510
  C   2.50869400580592     -0.53096685894419      0.48757111011910
  C   3.41295997751202     -1.51362557418763      0.25672610444907
  C   3.28505450097696     -3.00722045002697      0.39514727155810
  C   4.55689581327765     -3.46652904502279     -0.33042827879189
  O   5.48290222697822     -2.38574994081698     -0.24881384043958
  C   4.72618310823949     -1.23359172158694     -0.12831935615476
  C   5.25626613402338      0.03502640179491     -0.33023998391825
  C   4.55708189706101      1.21659568779872     -0.15900189245846
  S   2.82146196549878      1.19912596530373      0.37985419198881
  N   5.19329896465853      2.37169683542841     -0.41932153326588
  C   4.72244189541772      3.59308399844774     -0.25621762707036
  C   5.55690790774285      4.69797504187409     -0.61054449430846
  N   5.17631648122550      5.92352251796507     -0.45880409396445
  N   3.94240029949080      6.16471503491102      0.04943330606220
  N   3.16929037437295      5.17823915394942      0.36171122149937
  N   3.49907220743831      3.91481015605816      0.23135706439810
  H   2.37700636958390     -3.40293681432725     -0.05847711420504
  H   3.28790742649509     -3.29242715094468      1.45121915973082
  H   4.33792992937716     -3.66014826266758     -1.38629605032879
  H   5.02508399522950     -4.34669099062340      0.10715792459274
  H   6.28358586817465      0.14089678516583     -0.65325562019301
  H   6.54537546991100      4.51513908018667     -1.02100170010447
