25
Coordinates from ORCA-job 6853optt
  Br  1.50612492638524     -0.13972738764916     -1.68590953773758
  C   3.19207470252603     -0.04379954851284     -0.82220046829048
  C   3.70969112883772     -1.20380134298534     -0.23679292658536
  C   3.15273566385836     -2.58209413430280     -0.06298158126375
  C   4.36654896525074     -3.28652899964347      0.56042744552270
  O   5.15245084513475     -2.27820913269095      1.20175825210401
  C   4.83508238090803     -1.08934099409336      0.57207968290139
  C   5.50183625073588      0.07988163339652      0.75372348126844
  N   5.06447407633268      1.21251326342296      0.00992549486848
  C   5.85802107233761      2.34632538726880      0.05978098998915
  C   6.71285698347790      2.65346593808811      1.09595151211964
  S   7.63647423085350      4.06602198545151      0.77995905415187
  C   6.89358305362569      4.27013762648353     -0.75124335599856
  C   5.98766160905003      3.29693296321680     -1.01310834645347
  C   3.77327971020924      1.24059345671374     -0.63949239720243
  N   3.19436507338869      2.34034179082102     -1.01977133575946
  H   2.83986975754767     -3.05879913893209     -0.99395244683439
  H   2.28565940163058     -2.58736148829906      0.61297608790606
  H   4.97314602680002     -3.75308637887095     -0.22365860465913
  H   4.11283500939283     -4.03552134687768      1.31085138528657
  H   6.44286646196846      0.16200223044509      1.26754559061576
  H   6.81988546847841      2.13515601697625      2.03288991575260
  H   7.18022441513006      5.08710113686976     -1.39355974289112
  H   5.42856085450692      3.22350088373157     -1.93389646120101
  H   3.69469193163288      3.15629557997206     -0.69230168760991
