23
Coordinates from ORCA-job 6866optt
  Br  1.08610813995204     -0.61420609837314     -0.22727402210845
  C   2.92628748873842     -0.15919780312252     -0.13667831501348
  C   3.30422333184509      1.12260687765232      0.13784471980181
  C   2.58146981661586      2.38883182840330      0.45690733292294
  C   3.72247168046969      3.42416110514326      0.44370574321269
  O   4.96886652172569      2.64626886393364      0.46292648606364
  C   4.68932278427090      1.37313285759082      0.19837161887924
  N   5.64120824398446      0.48396702321868      0.02275272432113
  C   5.22176654496061     -0.75995764261838     -0.24593157923379
  C   3.89877743709576     -1.14293138500679     -0.34480790737803
  C   3.72349421805831      4.42191642508591      1.57211262290956
  N   4.32326274683803      5.59378350812889      1.28380404621387
  C   4.37089307267706      6.47192614275945      2.31718921197526
  O   4.83801099370122      7.60306659629728      2.27892645293250
  N   3.84360181617711      6.01051884291876      3.52323588949933
  N   3.12774746070299      4.85077718055788      3.72987922260605
  N   3.12977492735995      4.04064761166140      2.68593500735285
  H   2.13101601425298      2.34640750896545      1.45013220724300
  H   1.80664885055789      2.63126691139332     -0.27018248397481
  H   3.75243206630569      3.98266840209713     -0.49264236981008
  H   6.00142417768822     -1.49949675560727     -0.39431740663469
  H   3.62604643438931     -2.16304415773637     -0.56966962454490
  H   3.80314523163262      6.66988615665694      4.28178042276437
