22
Coordinates from ORCA-job 6869optt
  Br  1.27330273278578     -0.09702782136174      1.13642022047277
  C   3.11680193697710     -0.02042991282959      0.53206749998295
  C   3.73665067787927     -1.21202009761282      0.12931718604832
  C   3.39509645673550     -2.66599282833373      0.09687097641745
  C   4.73551673153741     -3.25424586341261     -0.43041904136302
  O   5.69675319236277     -2.20375588206519     -0.51384382454668
  C   5.09387396824394     -1.02282506780632     -0.21315981978535
  N   5.75158419950687      0.08275095345830     -0.22733897828008
  C   4.99271344233448      1.18890839784542      0.14639659767958
  N   3.67939210055716      1.12956043522664      0.54612378415959
  C   5.61410119797437      2.45194355938712      0.15685107377566
  N   6.12374321595143      3.49369160480986      0.16765071751179
  C   2.25020187810846     -2.99905289959264     -0.85283234914017
  O   2.31925298548407     -2.90207588509229     -2.04581382264542
  C   0.94207682002391     -3.48519680178095     -0.20582261739654
  C   1.16023315400019     -4.72203875687109      0.53526418137621
  N   1.35540578438094     -5.69488819180736      1.10972641830044
  H   3.14628006957405     -3.06924993994768      1.08601761936711
  H   4.60167513468581     -3.67488098099008     -1.42740165169844
  H   5.12376281425098     -4.01872589006640      0.24201620762025
  H   0.19963927924061     -3.64209438493353     -0.98583636815955
  H   0.59394222740484     -2.71835374622329      0.48974599030312
