25
Coordinates from ORCA-job 6870optt
  Br  0.89947135762693      0.01685488667562     -0.23695454735638
  C   3.05317428630939     -0.12353593160920      0.40858356929883
  C   3.64761165052623     -1.32111026190035      0.09859910837491
  C   3.19629678289110     -2.74187602563295      0.16138883980859
  C   4.32641796660354     -3.43608025700205     -0.63442878819833
  O   5.38485296487874     -2.48510934491831     -0.81620572711019
  C   4.89076563862122     -1.24745960979232     -0.52388131660347
  N   5.56442389755608     -0.19112575832000     -0.85937548434281
  C   4.97495020311112      1.00420703749605     -0.51810650746824
  N   5.45505855089819      2.16326864375992     -0.71812143810053
  O   3.73461578443770      0.99459281411720      0.12675934123775
  C   3.85369970186868     -3.85598869301297     -2.01911649616980
  O   3.39888850993225     -2.76342916756783     -2.76886562437496
  C   4.46880403953711     -2.32262218680362     -3.58158373589665
  C   5.38925971481867     -3.52195650766584     -3.64164507976536
  N   6.40101904269296     -3.76145726513759     -4.34654481701593
  O   4.92029178914505     -4.43183863535606     -2.75876640970603
  H   2.22396145819520     -2.87428584383577     -0.32244489732905
  H   3.12370667358909     -3.13480334488398      1.17768919562439
  H   4.74767724272691     -4.30625421778410     -0.13043041186334
  H   6.35437952959068      2.03833486350627     -1.17400178003028
  H   3.04947403276261     -4.59067765816345     -1.93923766459390
  H   4.98380467209599     -1.46035988198079     -3.14879968683352
  H   4.08114094532333     -2.06960898215851     -4.56828704484570
  H   6.58725356426109     -2.96967867202931     -4.95622259673993
