28
Coordinates from ORCA-job 6872optt
  Br  0.99866821767632      0.37431103538171     -0.82104714309416
  C   3.00752508227260      0.10078749338909      0.33037800879244
  C   3.65011928486871     -1.08206767623249      0.13700434735275
  C   3.21072709380927     -2.51016921158756      0.13010562256012
  C   4.53356260024511     -3.21013057481305     -0.24937647763367
  O   5.59652756082147     -2.25016866765265     -0.10566282379611
  C   5.04631117947957     -1.01611517760517     -0.02393945015130
  N   5.79301175539724      0.03759254196676     -0.09169294998964
  C   5.12438718879414      1.22552301471769     -0.01836995754856
  O   3.74836313766529      1.21922462344315      0.28539799816214
  N   5.68743634317000      2.35204204074960     -0.19384364357768
  C   4.87911653578119      3.54206248173420     -0.11766543103602
  C   4.62941597181336      4.03518408168171      1.32289732816642
  C   4.22233426406027      5.49618809280745      1.14692631042167
  C   5.00521246714251      5.96001567383985     -0.07512545644542
  O   5.14476995214584      7.10712350785473     -0.41603373560814
  C   5.57659553196601      4.73933040260651     -0.76777509604225
  H   2.42495805456041     -2.69848412326098     -0.60303089968501
  H   2.84519077697498     -2.84100632510184      1.10495118460176
  H   4.52702420332530     -3.53696918948568     -1.29110109616347
  H   4.77566839501676     -4.06054728093114      0.38591340140827
  H   3.90027981528382      3.39595337523413     -0.59187204626516
  H   5.57318207593506      3.96258393148577      1.87009550829571
  H   3.88664799553150      3.42457665932787      1.83226999051265
  H   4.40648885705485      6.15237690052552      1.99691867653831
  H   3.16116276837138      5.57759000373269      0.88919890117538
  H   6.64515768169462      4.68859875662156     -0.53133777548926
  H   5.47815520914224      4.80659360957051     -1.85018329546178
