25
Coordinates from ORCA-job 6875optt
  Br  1.31601558879629      0.04819389292023     -1.20514819696123
  C   2.97466664802237     -0.17800819550400     -0.35291284147982
  C   3.50468629412117     -1.36700366246436     -0.02258028670731
  C   3.06915230053031     -2.81736014230717     -0.03969947690457
  C   4.45539510658434     -3.48065517252560      0.02782561674497
  O   5.36577749945323     -2.51693009686923      0.60535771871794
  C   4.85010148969789     -1.29455378231269      0.46313198388815
  N   5.55888569676175     -0.24523193547107      0.71289937176747
  C   4.97548857138011      0.97389066053139      0.46923758379874
  O   5.48860829003366      2.04889073354013      0.68024581894206
  N   3.68514695525339      0.95345597029328     -0.11533743278016
  N   2.26395806599215     -3.26261166500770      1.06555938359005
  C   1.01901019958393     -2.55821197976990      1.30436278398741
  C   0.52883197320720     -2.89855517305036      2.71126769648006
  O   1.36594804972789     -3.30997822683849      3.55982944503437
  C   -0.84953740897268     -2.66159442045972      2.96457407488618
  O   -1.66899615666265     -2.21082168184070      2.12076371667595
  H   2.55610669554041     -3.05792972552355     -0.97523610297992
  H   4.84039112336693     -3.73752412918396     -0.96016493344046
  H   4.44465815839932     -4.35858530249153      0.66817616434193
  H   3.29616688861417      1.85811979078309     -0.33287941440620
  H   2.76247233224549     -3.30216383549698      1.95446626107362
  H   0.26328937009021     -2.82310048625054      0.56110385648831
  H   1.14313801485362     -1.46469398585550      1.25481528578623
  H   -1.16936174662055     -2.89703744884503      3.99534192345622
