23
Coordinates from ORCA-job 6876optt
  Br  1.35032971286563      0.69966768535175     -0.90886418642317
  C   3.01126822009938      0.15626570840287      0.34065366132389
  C   3.54416261765769     -1.09673573830460      0.08287238167725
  C   2.94626281960761     -2.45045879264342     -0.10445532673037
  C   4.22359676254838     -3.26070210254008     -0.46687854109702
  O   5.35261335974153     -2.46882481953297     -0.10177290908470
  C   4.92024953883611     -1.17815155754309      0.05126448814699
  N   5.80611253028598     -0.22013966509069      0.14962986150003
  C   5.29639553882339      1.02447684459542      0.32299325614175
  O   5.91545287514040      2.05201314490885      0.38450637121711
  O   3.88401613458250      1.16287512625210      0.48208850633844
  C   4.31589329363887     -3.55901744522138     -1.93343605823882
  C   5.19552533812170     -3.06207360013641     -2.80505695971433
  S   4.90884149737387     -3.68775510231991     -4.41341185041080
  C   3.52998532055734     -4.65741255307821     -3.85628021123346
  N   2.75581480874446     -5.42620761924810     -4.51064844452392
  N   3.41314994257622     -4.44304573393243     -2.50368060116263
  H   2.20810813062414     -2.47732105961357     -0.90997955476730
  H   2.47384795892898     -2.84023272501895      0.80150492273360
  H   4.28341888398769     -4.19848236928838      0.09099248263969
  H   5.98546442861382     -2.36466182722911     -2.58537541270664
  H   2.99001590701686     -5.44891963300172     -5.49632376313580
  H   2.62747437962727     -4.84015616576784     -2.01334211248969
