21
Coordinates from ORCA-job 6877optt
  Br  0.83088494561094     -0.41534625902276     -0.86962230882499
  C   2.55390428597381     -0.17714706259526     -0.04235945252620
  C   3.42900240691202     -1.27633916263170      0.00336864202657
  C   3.20775156857465     -2.69354342401758      0.05103370487711
  C   4.42678139149679     -3.26430633426308      0.16409035202521
  O   5.41305275121851     -2.32013783436803      0.18777084572726
  C   4.81260197924705     -1.09865989768339      0.07377218527469
  N   5.60562789691189     -0.03447128715741      0.04879108678955
  C   5.08624448173777      1.18411600057801     -0.03050264991240
  O   5.66507697669790      2.24741963862218     -0.07934231319701
  S   3.21626516981588      1.42346164847480     -0.05781831294269
  C   4.88507684405976     -4.65573927202791      0.21751273558972
  C   4.65466349599417     -5.64033642006058     -0.90351695653666
  N   3.88031190866850     -5.69345634763341      0.30432357152953
  C   3.98023401077802     -6.73606272889151      1.19692881195036
  O   4.08356988402352     -7.89839584181098      0.89837482828578
  H   2.26177041915339     -3.20839013380309      0.01487496510249
  H   5.79798776694687     -4.81507884015912      0.78496137909202
  H   5.37531031666587     -6.43657279875431     -1.05293609994914
  H   4.12721916139186     -5.28540239003803     -1.77894765380035
  H   3.90666233812073     -6.39661125275679      2.24224263941915
