24
Coordinates from ORCA-job 6879optt
  Br  1.05397587562433      0.18656415033655     -0.13588376004683
  C   2.93335844222949      0.09088122528166     -0.03967379140688
  C   3.57416371735855     -1.15481188123865     -0.02625384375418
  C   3.10629628709461     -2.55064432066031      0.23015452253736
  C   4.43947410630708     -3.30494794090848      0.02137538358324
  O   5.49705496782065     -2.37359491208077      0.23340197648901
  C   4.95945788493454     -1.12049214652497      0.06155225818981
  N   5.75179251688663     -0.09515440166775      0.06269924262658
  N   5.08909209896603      1.12728307162296     -0.02352451034820
  C   5.96858281139986      2.24146637246846     -0.03717290344885
  N   7.24429575962009      2.13816743797916     -0.00929722026453
  C   5.28273401128356      3.50692221736206     -0.08400682831172
  C   3.92822816853973      3.54408589281393     -0.11518978968610
  N   3.11540435387230      2.46814663933289     -0.10689844622864
  C   3.69423738317949      1.27560266357368     -0.05739584863637
  C   4.53565073301413     -3.81894534091564     -1.39916184349193
  O   3.95780479274727     -4.79995364307547     -1.78387364886295
  H   2.34039496891619     -2.91769905247359     -0.45531874008783
  H   2.72262033998358     -2.68012477450482      1.25072714517792
  H   4.57247559937511     -4.14176225808730      0.70762981404207
  H   7.50137493421733      1.15537783573635      0.02650345998142
  H   5.89109629690131      4.39845564193187     -0.09239223318688
  H   3.41568761885981      4.50195993999507     -0.15054030776269
  H   5.18574633086821     -3.21778241629688     -2.06346008710283
