26
Coordinates from ORCA-job 6880optt
  Br  0.94765027823486     -0.14728401038555      0.98957324394596
  C   2.63523512810459     -0.03205129793122      0.14340059695372
  C   3.22913539277944      1.22080990155419     -0.08823904550259
  C   2.68812268332513      2.61243841243065     -0.13563586452421
  C   3.98861755385206      3.39847019716785     -0.37518971437939
  O   4.93051262169183      2.49328513048293     -0.95793489815425
  C   4.50744740103929      1.22626919652465     -0.63947452653685
  N   5.26159351415576      0.21089516400852     -0.92791623245479
  N   4.67213729052068     -1.00257391987041     -0.56972674983352
  C   3.38349252566398     -1.20311774247301     -0.08530529973243
  N   2.91230959464443     -2.41059493018082      0.18542460273238
  C   3.78201008475511     -3.53927163402439      0.02667499495403
  C   3.14677747875419     -4.68069637323722      0.82939196906061
  C   3.88063294166770     -5.94286272137752      0.75581216116364
  N   4.45704108951578     -6.93275429077935      0.69317076179886
  C   3.78407839137938     -3.85904152704399     -1.45148904712328
  O   4.69199398073027     -3.61173516205789     -2.20567766622972
  H   2.18823120083148      2.92957673558006      0.78199618859856
  H   1.97217381360449      2.74706361977423     -0.95866977404782
  H   4.39645729231706      3.75741593787992      0.57512941647649
  H   3.87526207493372      4.24179262394069     -1.05584887810805
  H   5.10689305167583     -1.77175437986575     -1.05456467274237
  H   4.81996893023472     -3.38218366487971      0.35436378369506
  H   2.12965572928232     -4.83307519205118      0.46223116337707
  H   3.06981389706601     -4.36288874519454      1.86913758273328
  H   2.81675605923981     -4.24413132799113     -1.83363409612041
