21
Coordinates from ORCA-job 6883optt
  Br  0.96741089050821     -0.21248519445433      0.52646788890783
  C   2.82877554905231     -0.12506744413500      0.20217294436610
  C   3.61256704914258     -1.25570407216660      0.08585885354518
  C   4.98678611605211     -1.23842032929505     -0.08564658844192
  C   5.47717435073454     -2.64779881235635     -0.15487256976971
  O   4.29847533255348     -3.46573824005725     -0.10698768577866
  C   3.18048447017409     -2.68708159235771      0.18210418547112
  O   2.71112287791986     -2.95253287931405      1.50777416533188
  C   2.37082311516715     -4.23048295774769      1.79117230741002
  N   2.04429775645800     -4.62551022518858      2.93778222205137
  C   2.11213811360005     -3.08509198208620     -0.78505997424677
  N   1.32568505039956     -3.43202822516709     -1.54233738873357
  C   5.80937904278943     -0.10583849244410     -0.14225199647170
  C   5.34410094631834      1.21436124344604     -0.04401543783448
  O   5.96840753270437      2.26207964900827     -0.07157887408363
  S   3.50742640502610      1.47706729353739      0.15094768106362
  H   6.12544668601700     -2.91194153120588      0.68717618816409
  H   6.00240868103375     -2.87991980243921     -1.08528951353921
  H   2.39192987847914     -4.91434514099053      0.94444607282170
  H   2.08480910241286     -3.84775954864092      3.59831070509695
  H   6.88035105345705     -0.21276171594514     -0.26717318533020
