25
Coordinates from ORCA-job 6888optt
  Br  1.73603556569387     -0.47125234242933      0.83926107523686
  C   3.38730881093648     -0.36052161785400     -0.18805920939192
  C   3.87521300169535      0.92272755772081     -0.58692583216725
  C   5.27957652310323      0.88511800746966     -0.98777722997068
  C   6.14025550183269      2.10803623501205     -1.17906248862111
  O   5.97097821738524      3.12075191010975     -0.20129332381768
  C   4.78450473838663      3.89165494039058     -0.27497626689925
  C   3.73611991855610      3.36482876635057     -1.23627680225019
  C   3.12665838060174      2.17453332235091     -0.46237495557564
  O   3.13068946517110      2.77590813420371      0.96216832818483
  C   4.04844470870574      3.74823430402752      1.04858254447353
  N   4.28603721711161      4.45864050391801      2.06581239954949
  C   1.70553565252345      2.10201735242581     -0.82896498693236
  N   0.63833258185362      2.17609536820108     -1.24791574463437
  C   5.86166137794056     -0.34475134765756     -1.20895918241951
  C   5.16803025176679     -1.52830784245985     -0.98861165384618
  N   3.94043588938693     -1.50063900016344     -0.37530186972793
  H   6.02933636348999      2.55078247845256     -2.17945274192027
  H   7.18423127877946      1.80690500117232     -1.09114842357062
  H   5.04952999121870      4.93563768687261     -0.45143571934130
  H   4.08735811267151      3.06972815086184     -2.21842850436378
  H   2.97231244383933      4.13282134913287     -1.35767187741299
  H   3.69068498088616      4.15911808943046      2.83796101625429
  H   6.89691628031452     -0.38970206517267     -1.53391109518393
  H   5.60581274614909     -2.50236494236633     -1.15423745565203
