23
Coordinates from ORCA-job 6893optt
  Br  1.12671076213250      0.14112155987042      0.53774392519687
  C   3.02987300192802      0.16215750669170      0.32337967526488
  C   3.67086310751647     -1.05723642476214      0.02113986903403
  C   2.97669840213457     -2.38933373146585     -0.10966151146700
  C   2.18959694862803     -2.82557618885723      1.11997900817051
  O   2.62352344393940     -2.82801195300523      2.23882083332108
  C   4.11698597558918     -3.36936418730789     -0.40187707468152
  C   5.18135958552363     -3.53561866352371      0.65930956025224
  C   5.91139041889639     -4.77188696125738      0.68494072072898
  C   6.53067013062754     -5.80130835267024      0.69185275608698
  C   5.39129267372318     -2.58861866326526     -0.51028322097610
  C   5.04404783528816     -1.16436822086346     -0.24097615836577
  C   5.92934665933646     -0.12342601774387     -0.23125735247933
  S   5.43543235563956      1.51208935794386      0.12572952255365
  C   3.61815018477115      1.43050846724017      0.41597429998848
  O   3.10474273812057      2.51679027442662      0.65116335567466
  H   2.27153785608619     -2.38788800497096     -0.95034820390076
  H   1.16216158939334     -3.19260263585001      0.92448190528350
  H   3.92935608435093     -4.22352884856193     -1.03691468748576
  H   4.98559922131765     -3.07607568634841      1.61967871382656
  H   7.08073221625705     -6.71019037705133      0.70556525958170
  H   6.15647497055647     -2.84714262970240     -1.22946280002736
  H   6.98445383824350     -0.25848961896545     -0.42597839558055
