24
Coordinates from ORCA-job 6895optt
  Br  2.29806091458004      0.67209049922117     -3.70901810122801
  C   3.46738635664098      0.49411632196114     -2.13841768826239
  C   3.63183440402834      1.53853331148832     -1.29192557116427
  C   3.09139904587765      2.93678669982619     -1.52907923679057
  C   1.55551343784165      3.11846342632940     -1.46605130586845
  O   1.07071999430743      3.70333155541659     -0.23310015116983
  C   1.42615605537839      2.99974378522309      0.85575819909580
  C   1.65996744686084      1.66887484606182      0.94469622399859
  C   2.44726946271789      1.38825706388605      2.09629314327534
  C   3.33953272593141      0.16554957103642      2.08410530557334
  C   3.81923021964238      0.02629025679707      0.63634096091041
  N   3.54562835491726     -1.08604399881906      0.02832384898156
  S   3.91030778407276     -1.10804887358884     -1.64581645052912
  C   4.26396331428923      1.28414920097183      0.00788904936479
  O   4.81280258063350      2.19181163826778      0.67226190165217
  N   2.60538346583099      2.36952296977976      2.94717674141503
  S   1.94174513532390      3.75497001431315      2.32260928885333
  H   3.41355717735224      3.27535866963107     -2.51563082276933
  H   3.55512833372023      3.59247978360751     -0.78853479741034
  H   1.23020801126669      3.82733182473117     -2.22435348567025
  H   1.03507048621971      2.17665455046068     -1.63926641921054
  H   1.48863625975398      0.95507771799637      0.15387726313631
  H   2.82051285552735     -0.75333505554197      2.35689628294779
  H   4.16898617728512      0.34203422094328      2.76796582086866
