27
Coordinates from ORCA-job 6896optt
  Br  1.05003297273342      0.19288633053289      0.55486665604076
  C   2.85943901645712      0.07315369768633     -0.02335705196654
  C   3.66751222458373      1.17271439615506     -0.08549233611360
  C   3.28711162317974      2.61678449163529      0.10998028030055
  C   4.63866934041629      3.32307515875840      0.11283930504664
  O   4.86018419236516      4.41238867874246      0.57691716030332
  C   5.65978087616140      2.40800832682904     -0.54953925036611
  C   7.12326967683533      2.55611692225553     -0.12281927200879
  C   7.61018175916138      1.33500386787649      0.65283743896832
  C   7.29807274691830      0.00489389579900     -0.07423240741906
  C   7.83807068838579     -1.04812257325297      0.86643730443757
  O   8.94269430197997     -1.52310850261908      0.79641899493196
  C   5.80424610958825     -0.12623114454128     -0.28126105734177
  C   5.04787026572045      1.05741754788216     -0.30041695202174
  C   5.21889747267840     -1.41514276785003     -0.35643300395749
  N   5.76038268850980     -2.58658249393115     -0.46624920743727
  S   3.41514781155579     -1.55546975433837     -0.33627271876747
  H   2.75085582691481      2.80775198368033      1.04181080442004
  H   2.66981012224649      3.02356419178008     -0.70163334024974
  H   5.59063986566343      2.64759880959803     -1.62575871229284
  H   7.23638119696070      3.46222421850206      0.47775829080040
  H   7.75275444638492      2.67772764111048     -1.00665916888384
  H   7.11831471080837      1.30436728286342      1.63065996181428
  H   8.68642520965248      1.40865968517641      0.82513900023943
  H   7.89633586056909     -0.04747224131026     -0.99406108499919
  H   7.15933574661496     -1.30461602091583      1.70354539229787
  H   6.76658324695425     -2.51659162810450     -0.60102502577568
