28
Coordinates from ORCA-job 6899optt
  Br  0.42708432632004      1.04948984063464     -1.32304373924118
  C   2.74146831735970      0.53946554535220     -0.23339204524475
  C   3.62003001957483      1.62386476113995     -0.08043087013526
  C   4.96073162440830      1.35682133300681     -0.27701932818956
  C   6.00947202544302      2.40996070911339     -0.04232200905293
  O   5.48255706245054      3.70202406996122      0.12318496147262
  C   4.37060527871792      3.73922215380288      1.00171563135072
  C   4.04597020106115      5.20183157981628      1.25827469268632
  C   3.47944501579954      5.85635736185752      0.00067095338435
  C   2.32066266651480      5.02314795697179     -0.52404104477205
  O   2.73027586690425      3.69775275769115     -0.79048483300319
  C   3.18578254718612      3.00270547947033      0.35658345851396
  C   2.02094928062897      2.83441856932687      1.34099757880442
  O   2.13221095913181      2.98657646909439      2.53062920294327
  N   5.41537426495078      0.14857226797198     -0.63371543864065
  C   4.49035474722869     -0.78879539779381     -0.76729168603454
  N   3.18131233828526     -0.65321565519425     -0.56878955739003
  H   6.68520997154081      2.43669949402645     -0.89699919475716
  H   6.59517442303512      2.11721961883985      0.84201701574481
  H   4.61942925295474      3.23589749692517      1.94377511663887
  H   3.31526620857192      5.25087703544019      2.06850779842887
  H   4.95459889369030      5.70618873846624      1.59248742971418
  H   4.25151892578153      5.90967666660292     -0.76909921916247
  H   3.14080820275817      6.87299783946812      0.21481645880961
  H   1.93567984222298      5.40876394079335     -1.46748765747029
  H   1.49247468160454      5.02871076585899      0.20026552909516
  H   1.07187989713580      2.55173649696220      0.85547163357217
  H   4.83867315873818     -1.77596789560696     -1.05828083806529
