20
Coordinates from ORCA-job 6903optt
  Br  1.19276618591078     -0.23964048582453     -0.04647666740634
  C   3.08701623645640     -0.08918281839766     -0.04554306785229
  C   3.70216904509052      1.14019477097183     -0.04555143625675
  C   3.27398511849619      2.57665242356098     -0.04596119445434
  C   4.61167441242237      3.37397370525501     -0.04584394825766
  O   4.66569006832164      4.59565751958185     -0.04602144796087
  C   5.67794249182065      2.39977120051906     -0.04526307318065
  C   7.10034294151348      2.43862299532876     -0.04489393902286
  C   7.83105029659357      3.65562115797157     -0.04521452632137
  N   8.42457005435864      4.64249122265143     -0.04547124265792
  C   7.73655113566825      1.17597660033873     -0.04428957885071
  Br  9.66032742250645      1.17060874224049     -0.04335768920828
  N   7.20208880024669     -0.01183683733744     -0.04404858529097
  C   5.83039474571094     -0.07582977368611     -0.04448258166408
  N   5.20063228581703     -1.25839697084633     -0.04441307347341
  C   3.87142074750139     -1.25196447966815     -0.04494923937873
  C   5.09658627035756      1.11466653032039     -0.04507429473908
  H   2.68281714016867      2.84104434991348      0.83357823559268
  H   2.68316578556463      2.84068532456338     -0.92583634902159
  H   3.37680881547410     -2.21711517745676     -0.04488630059477
