24
Coordinates from ORCA-job 6905optt
  Br  1.59205043576254      0.63432584283882     -0.39291442529851
  C   3.35813306652421      0.08005102669991      0.03716149552762
  C   3.66425040520741     -1.27204342547321      0.08778755432782
  C   2.91636197430621     -2.39696314349488     -0.31336951208348
  C   3.47477506765882     -3.62695042682689     -0.30396402450324
  O   4.75480117309787     -3.85470104925739      0.16545697621385
  C   5.34918831621308     -2.83629795883259      0.84422217115803
  C   6.46223938156541     -3.03882421882173      1.59749358576642
  C   7.60890900455232     -3.43063710871740      0.75212871717629
  N   8.07756608087656     -4.56272102689297      0.43228159824076
  C   8.15808181743473     -2.15467124384856      0.09361775105164
  N   9.32563458108365     -2.16165254552050     -0.44310012642554
  C   7.36163945619237     -0.93376569231318      0.08791203304424
  C   6.03572251769773     -0.59421407039562      0.32127539519791
  N   5.65965929788963      0.69642344066636      0.28044245391493
  C   4.36395442443757      1.01651906952418      0.21294904949222
  N   4.97129632247345     -1.55930638460204      0.57047909928204
  H   1.89873215768863     -2.27153091964795     -0.65149305032597
  H   2.99465952495254     -4.53946306852963     -0.61595012044330
  H   6.69590904463448     -2.13652190023887      2.14855787446580
  H   7.58625163093341     -5.28588127313103      0.95603967275098
  H   9.72857544209619     -3.09090663584356     -0.31253759379707
  H   7.94149456770267     -0.06381801601443     -0.19125464230604
  H   4.11811430901843      2.07255072867317      0.23177806757262
