29
Coordinates from ORCA-job 6906optt
  Br  3.35778248244660     -0.69528978370391      3.85994212092532
  C   3.11251410423833     -0.26949684055008      1.51457078171374
  C   3.50112151605981     -1.31231204852587      0.71119252487594
  C   3.13897493770174     -2.71287350853498      1.14729854299326
  C   2.79486205610102     -3.69862489031849      0.04201557024606
  O   3.91754639319715     -4.27158544590356     -0.62674133995794
  C   4.99796352973329     -3.39975798377214     -0.83078094365628
  C   5.97015193058739     -4.01212376053148     -1.83406333829998
  C   6.48235251835543     -2.84072245808460     -2.64681315009487
  N   7.41842921579827     -2.79917228579093     -3.51109766082031
  N   5.72138527603487     -1.76187235106990     -2.31544071884582
  C   4.58896280329475     -2.04960481831536     -1.45886899296910
  C   4.26970561812835     -0.97549133495951     -0.44118501566844
  C   4.66513768299289      0.31117593758471     -0.65943766145527
  C   4.28485360299632      1.37136121448777      0.23466564733547
  N   4.57834570596414      2.61234812283318      0.19516208830629
  O   3.43961080734062      0.99345488184211      1.25843743354061
  H   2.27006502926216     -2.62744427621690      1.80025539739482
  H   3.92437237304126     -3.14333970313303      1.77960103694735
  H   2.14271206399576     -3.21680247244984     -0.69612281384094
  H   2.25741489143005     -4.55133443166531      0.45779635318489
  H   5.50748134571731     -3.19171712724281      0.11623967516535
  H   5.41950621415052     -4.68619604453528     -2.49380187998955
  H   6.78455196962858     -4.56828927153337     -1.37322075083654
  H   7.87018799668643     -3.70595177803803     -3.57764941242405
  H   5.80236295210731     -0.91647406563445     -2.85448725889661
  H   3.68527987696892     -2.22461967738547     -2.05938148964556
  H   5.27492308733618      0.59348880092521     -1.50527386841198
  H   5.18844201870436      2.77926740022243     -0.59981087681580
