22
Coordinates from ORCA-job 6910optt
  Br  0.96160044105221     -0.04560548595848      0.39799629783975
  C   2.86098432543663     -0.00857414711738      0.25211320869904
  C   3.54608120436620     -1.21211771283284      0.07638886758618
  C   2.90912611209493     -2.58236249488726      0.01133276167942
  C   2.03772026361163     -2.93478447344007      1.21238867718693
  O   2.43763739035237     -2.99285446971306      2.34145186481995
  C   4.12739832934108     -3.48979676522000     -0.12871101056476
  C   5.16067625220922     -3.47288316542277      0.93010565783267
  N   5.33844919339363     -2.68618387799208     -0.29551491206776
  C   4.91431820896878     -1.32180417574726     -0.11425966845996
  C   5.81870896770636     -0.26566254690912     -0.11636115711349
  S   5.25068558390427      1.37727371532804      0.11490694466899
  C   3.45095701705167      1.28093230994627      0.28242936029937
  O   2.87944793884621      2.35190000434721      0.40806378422029
  C   7.22137292918540     -0.44609712260986     -0.29316812787900
  O   8.06519854325715      0.45111055935562     -0.27812714841376
  H   2.27600650266712     -2.65896693122340     -0.87900532387769
  H   0.98194712821925     -3.17174888570899      0.98306624692004
  H   4.04354352175615     -4.35441082349035     -0.77463332764536
  H   5.82642688402648     -4.32140040996482      1.02815282052237
  H   4.93673036818983     -2.92721225863693      1.83735759607794
  H   7.51998289436339     -1.49475084210244     -0.45697341233117
