26
Coordinates from ORCA-job 6911optt
  Br  2.09464289221398     -1.81219028108918      1.90326878729393
  C   3.52665302307303     -1.20634386518947      0.79446721367827
  C   4.26747841267638     -2.15354684391237      0.05853810193147
  C   4.75601456277504     -3.54047135327854      0.48360694309532
  C   3.80356826221101     -4.54785865676676     -0.12335361337852
  O   4.09400436590617     -5.40485605539602     -0.92286184569184
  C   6.20228880969327     -3.66776193170102     -0.09608903703127
  C   7.43983405734238     -3.53587498060284      0.82791891623527
  N   8.36682032264445     -2.66057371716980      0.03728427825095
  C   7.45361767570748     -1.74060733112749     -0.52915613109936
  C   7.13913710377465     -0.40621855336032     -0.48015871474867
  C   5.69953344435489     -0.31918298806834     -0.69853177705283
  N   4.77379131438995      0.61224470457080     -0.20786215269976
  C   3.69388615277167      0.20277684394762      0.64606171781994
  N   2.94752198900957      1.09560498515259      1.22560134293195
  C   5.25209377904676     -1.61910698951070     -0.79269131107404
  N   6.34880386292716     -2.46532494839580     -0.91060228273075
  H   4.70462322114196     -3.64199571912626      1.57615182075803
  H   2.75730232366875     -4.40185007803883      0.19992057016049
  H   6.26783678660340     -4.56886665092898     -0.70543002545005
  H   7.91121109534384     -4.49261545315605      1.04845476162103
  H   7.15244776704423     -3.03957553991975      1.76316925682741
  H   9.04338677967970     -2.20101976707163      0.63114190422491
  H   7.80245230007293      0.40489370190558     -0.22151393689042
  H   5.10768748635320      1.54027687280500     -0.00704793729281
  H   3.25836220957407      2.02904459542861      0.96571315031133
