22
Coordinates from ORCA-job 6913optt
  Br  1.48945010667155      0.43148160667593      1.10832389600347
  C   3.00767727102047      0.04899324190316     -0.13630698188245
  C   3.56078027170406     -1.24543782796589     -0.12086892639225
  C   3.02647577103399     -2.53691943885062     -0.03228432893057
  C   4.12458955410064     -3.40637915475340     -0.09419880527145
  O   4.07470754817170     -4.79425711531540      0.02238672630479
  C   3.23032866270749     -5.45373439983595     -0.77884012826437
  C   2.44269261627637     -5.15424372055909     -1.85588265057370
  N   1.80879083859571     -6.30257539608017     -2.28984304892957
  C   2.20073607377387     -7.25687715820936     -1.49912242484583
  N   3.07167547269577     -6.79260726840658     -0.55222190696595
  C   5.33092946875400     -2.71896861991686     -0.20018187106518
  C   4.98518546364690     -1.35938255515179     -0.21652927008256
  C   5.70317183711037     -0.15261093715831     -0.12023799054800
  Br  7.60959189416568     -0.22586922166973      0.06057194183800
  N   5.23576192470116      1.03991655150194     -0.10248338520892
  O   3.81708754698057      1.11188719735572     -0.28745846583328
  H   1.98633505328622     -2.80483958351089      0.06417622372154
  H   2.29893636286711     -4.19429470277627     -2.31829871920204
  H   1.90241071162888     -8.29159133205019     -1.54721820085896
  H   3.52799044871638     -7.30464128354485      0.18220941772538
  H   6.31969510139102     -3.14704888168132     -0.23369110073807
