24
Coordinates from ORCA-job 6917optt
  Br  0.83252281891499     -0.27989962129725     -0.19566719678283
  C   2.71626239795931     -0.08837008695978     -0.01466203905750
  C   3.53498033533243     -1.18325977047932     -0.00873469501208
  C   3.10562956907760     -2.61720458151632     -0.12292133364927
  C   4.40676760742582     -3.38430676471459      0.01356292769549
  O   4.51249614208405     -4.58362848112581      0.06536138739737
  C   5.59410657132695     -2.41373038783235      0.09003206484515
  C   6.53635577843204     -2.72670332298939      1.27192897183807
  N   7.58775530663881     -3.57912102052031      0.70789786895004
  C   7.50166115744655     -3.53337928140020     -0.69534613154554
  N   8.19223923709401     -4.17957496794447     -1.54945074363514
  N   6.53083827868683     -2.62159175493652     -1.01235672720331
  C   4.92650702475987     -1.07141705374417      0.13140508129827
  N   5.68186264894165      0.02695893919568      0.30729943396964
  C   5.18675241532300      1.24846895275279      0.36260284460547
  O   5.75832881963775      2.30118630617050      0.53539312268747
  S   3.31678275432359      1.52747943462793      0.15028485349236
  H   2.62517148239165     -2.85337584732760     -1.07785549701852
  H   2.40756619022211     -2.92420016181298      0.66098216650152
  H   6.01399462344609     -3.22765501394814      2.08557748262160
  H   6.95444788223698     -1.78348649876586      1.62434976266252
  H   7.59272801947930     -4.52881858185713      1.04781502734683
  H   8.91165365137051     -4.71663536908591     -1.07460146478679
  H   6.23958928744803     -2.54373506448878     -1.97289716722083
