19
Coordinates from ORCA-job 6919optt
  Br  1.40764432984576      0.02845660654879     -0.65223412547597
  C   3.21358804245872      0.04533000395897     -0.08660852307620
  C   3.86091340813850      1.22778884258644      0.23218202882394
  C   3.53283711721029      2.62693149591477     -0.19898105198479
  C   4.93155782816435      3.18205894395780     -0.52086870379720
  O   5.19860034583300      4.02700143016182     -1.31355806615994
  C   5.96565904274324      2.36852685598759      0.33940886830522
  C   6.49262161204527      3.23863975957396      1.39488479882305
  N   6.86909997275600      3.94061604681167      2.22005837422924
  C   7.15009680463688      1.67529204463386     -0.40085424244753
  O   8.04595505854051      2.20578337949202     -0.97915387883107
  O   7.04490038583080      0.34536168669330     -0.22613393284996
  C   5.91429887512716      0.01431936372568      0.59220075261785
  O   5.29908539490348     -1.13571624198443      0.22530514554324
  C   3.91280702548598     -1.20282650064470     -0.07490490938223
  O   3.48591243760276     -2.30058321672248     -0.32086788831336
  C   5.14697130001890      1.19072408531047      0.72952529469410
  H   3.08810065154098      3.23767940134774      0.59248797011421
  H   2.88935036711734      2.67561601264670     -1.07588791083261
