26
Coordinates from ORCA-job 6923optt
  Br  1.04588514694850      0.10649974330831      0.07258545673759
  C   2.94535854834070     -0.00430890535842     -0.07134364344026
  C   3.55651179536425     -1.22485838271838     -0.06717677189305
  C   2.78460529660660     -2.51661457223886      0.02846133038523
  C   3.60945549929652     -3.76345315289492     -0.17981282434823
  O   3.16272274013152     -4.72642953201192     -0.75771157474159
  C   5.01299388087987     -3.74866987906552      0.40444543909550
  C   5.87577561397088     -4.90466611289333     -0.08534390885245
  O   6.59928566748802     -4.42087826180728     -1.21933629762096
  C   6.23556752894544     -3.06741122661695     -1.46351483780868
  C   5.77533779892111     -2.51302330199747     -0.11243073150006
  C   4.98776922673511     -1.24370836413640     -0.11607571942908
  C   5.63764670045462      0.00085560082029     -0.09205424105114
  N   5.07110059331984      1.17861177746350     -0.09787219555643
  C   3.68409510178484      1.21677045771990     -0.13553491168497
  C   3.06531522737909      2.47574348040738     -0.21290269465660
  N   2.56555398538221      3.52240875088308     -0.27435693419265
  H   1.95014586931717     -2.54596355288494     -0.67151706588212
  H   2.34282121645301     -2.60431830122609      1.03092423976461
  H   4.91556449385182     -3.71625262522640      1.49261853584264
  H   6.59543233730638     -5.20959604431950      0.67928564841218
  H   5.26843902110430     -5.76198750311129     -0.37726269027142
  H   5.41516574692227     -3.01216562577466     -2.19013211929875
  H   7.10001053265123     -2.54057976474461     -1.86766036573246
  H   6.67382143940736     -2.39031236693501      0.50446183218312
  H   6.72861899103723      0.00530766535955     -0.05674295445996
