27
Coordinates from ORCA-job 6933optt
  Br  5.36909210389143      0.46036997529928     -2.35119076545061
  C   3.98629432267222      0.68301482338256     -1.05696803477350
  C   3.34829890383277      1.96092083196892     -0.88348234678305
  C   3.28105788099559      3.01911680894397     -1.76384614815093
  C   2.45479978857339      4.16157293695102     -1.41948064324481
  O   1.07104308562301      4.26561251647477     -1.82085154799774
  C   0.32674166133108      3.72277061152274     -0.80006776855260
  N   0.28882378708095      2.47761391374653     -0.64671619991396
  C   -0.14084870054232      1.97022008737907      0.59972773198043
  C   -1.39261652118658      2.61440809010905      1.10780718520469
  C   -1.03384372196351      4.09975459129116      1.32278285803236
  C   -0.33199030757311      4.73260917621554      0.10713335021814
  C   0.67201148098012      1.14111808031013      1.27588189477407
  C   2.01726792380312      0.89898066071803      0.67498843106252
  N   2.43388504405317     -0.35306002166275      0.43978488309811
  C   3.51104659967843     -0.40193299730441     -0.37526328716935
  N   2.57528978627820      2.01252039706978      0.25401972304453
  H   3.73125611815361      2.92621163761492     -2.74425543264267
  H   2.57481454512448      4.59775980516742     -0.43070406480195
  H   -1.72714941317815      2.16932110782916      2.04570709501540
  H   -2.19351625937286      2.51985722395141      0.36891586029618
  H   -0.35807867829699      4.14420138849686      2.17870263466998
  H   -1.92489677625775      4.67494231541462      1.58387859661160
  H   0.42123510418057      5.45713287492176      0.42368834528363
  H   -1.03531533316679      5.28865792896086     -0.52097432828297
  H   0.35122295461592      0.68085859651731      2.20268765792523
  H   3.96707462066998     -1.37555336128976     -0.52790567945273
