20
Coordinates from ORCA-job 6941optt
  Br  0.95734841353452     -0.29102214171729      0.32855505303751
  C   2.83964273112410     -0.15218024413636      0.13211315458380
  C   3.56790257571486     -1.25936252399933      0.02797299011456
  C   3.07228026770476     -2.69946190833553      0.02495388919876
  C   2.31879313031070     -3.13433836685087     -1.22803971028178
  O   2.11228907681896     -2.45833299237534     -2.18942087698823
  C   4.37919519326159     -3.44377454866519      0.07767120438789
  N   4.76984984654395     -4.67538893496962      0.14952052739684
  O   6.14465185977035     -4.60269813966692      0.11345293411836
  C   6.54687840398237     -3.29879533825088      0.01623294948105
  C   5.44465399090888     -2.52379987197259     -0.01687628085049
  N   4.97127857559493     -1.23322939558087     -0.08190170587386
  C   5.87180301868362     -0.12134035437255      0.03458510798854
  O   7.07828367378611     -0.40445757672930      0.04399627946700
  C   5.33126436980171      1.19637120272138      0.12771720117776
  O   5.96193473968089      2.24761503258155      0.21377746945952
  S   3.48727708875242      1.46413701200227      0.11570750442877
  H   2.42904039635228     -2.91808813073636      0.88207605795488
  H   1.99195105421027     -4.19198308450889     -1.18681336061720
  H   7.60268159346267     -3.10786969443728     -0.01028038818369
