26
Coordinates from ORCA-job 6944optt
  Br  1.06086554959605      0.12811658624313     -1.20079685453379
  C   2.96214035989423      0.11594740344578     -0.98121886410045
  C   3.66910594419775      1.13359710818652     -0.35286882103625
  C   5.02297226339541      0.93925247611693     -0.05042813512697
  C   5.87471630350987      2.12265128327214      0.33150381415664
  O   5.29128986917845      3.36403880856505     -0.02090298483245
  C   4.04156605594592      3.48554624167160      0.58502941947673
  O   3.53613784504527      4.75634011551531      0.32759432409569
  C   2.55394757588039      4.71240635431477     -0.70971784196016
  C   2.57256757690678      3.29271559834330     -1.25353726874757
  C   3.03012849198274      2.47626190324755     -0.02508093906710
  C   1.93879441193467      2.35635427525732      0.95190342201923
  C   1.07872959899192      2.31963628312064      1.78630951364727
  N   5.71681068853251     -0.20946153877692     -0.05713654127001
  C   5.20867012665000     -1.37455307729657     -0.48104663745920
  N   5.71590020392818     -2.54848448816371     -0.36068830862553
  S   3.68452466791418     -1.38496482557349     -1.47214538592454
  H   6.82368834865307      2.05282098481784     -0.19840474309473
  H   6.09032629295633      2.10975329406904      1.41099585736271
  H   4.14436060244039      3.35587023406106      1.66925437100694
  H   2.80424749204415      5.46143579767832     -1.46220370610839
  H   1.58276853289803      4.95784786634838     -0.27159033129454
  H   3.32934553592774      3.17291701551038     -2.02829583407840
  H   1.60923803030026      2.96482058881279     -1.63572086044587
  H   0.30523870806084      2.24473021928436      2.51090368124088
  H   6.59891892323478     -2.44359650807157      0.14028965469988
