23
Coordinates from ORCA-job 6946optt
  Br  0.81119607724876      0.23738278190725      0.31669724996036
  C   2.71101187659648      0.17228731013250      0.08841478444054
  C   3.37430375773094     -1.06625857106908      0.14377575854866
  C   2.63528256979226     -2.33445515151792      0.49138540858250
  C   3.59317673911488     -3.32354287822615      1.12000354073053
  O   4.66591065088342     -3.62550238688377      0.23705680352596
  C   5.39296071140939     -2.52567762547215     -0.20043015827253
  O   6.66089855944161     -2.54890237594397      0.47029978036235
  C   7.44148214674920     -1.45578062340472      0.17267098135995
  N   6.98131845445559     -0.29939734972857     -0.16299048424901
  C   5.64051733592996     -0.12235467785039     -0.19967824638169
  S   5.07823507442294      1.51585011279080     -0.42394118950697
  C   3.28203365703329      1.43703952917964     -0.18883322733539
  O   2.71503742772409      2.51382615872379     -0.28275820686835
  C   4.73934929785155     -1.18931722159018     -0.04185937849539
  C   5.72092149117512     -2.89597590446346     -1.66299896408350
  O   5.38543811793750     -2.29221672999439     -2.63600272344684
  H   2.16371605898733     -2.77507151895493     -0.39332160276435
  H   1.83635200987890     -2.11337762090079      1.19967890776674
  H   3.11196600558414     -4.28009483344082      1.32142956234707
  H   3.99127236284642     -2.91991348435990      2.05652086281285
  H   8.49671218761905     -1.64269643566363      0.30792433947713
  H   6.31390742958710     -3.83185050326912     -1.72204379851059
