25
Coordinates from ORCA-job 6948optt
  Br  1.33437399098901      0.14564830839627      1.04799941383143
  C   3.14433555510786     -0.03699855525578      0.51972070565126
  C   3.71817138535031     -1.22720532293050      0.20576125743108
  C   2.96361543990919     -2.52649064584146      0.25385031093955
  C   3.70596209282443     -3.56380865681959     -0.56404327916084
  O   5.05659318415899     -3.63612859897240     -0.15818060404855
  C   5.77207814499666     -2.48946928764629     -0.51424769974400
  O   6.99350298004636     -2.64642541489748      0.24840403723984
  C   8.01121619919892     -1.84728158423699     -0.04423706854975
  O   9.04711217782087     -1.88491283850789      0.55020589061324
  O   7.79621343829184     -1.03690308397419     -1.11146109415726
  C   7.13947121128805      0.20540543943928     -0.80254823689839
  C   5.72829152275560      0.04293471701836     -0.32343383845496
  C   5.07099337371216      1.25508327052010     -0.00112878950889
  N   5.48781017022723      2.47333619270893     -0.07616883038193
  O   3.76623098586562      1.17007008872737      0.49652941821521
  C   5.07189756311852     -1.20683291321525     -0.20043111489961
  H   1.95364729213037     -2.39622792087865     -0.14124444207564
  H   2.86655207840321     -2.88090866236422      1.28444127002272
  H   3.65074719782895     -3.31653334141868     -1.63313630395490
  H   3.29178124013203     -4.56200452835364     -0.41934774515089
  H   6.05885342823609     -2.56135935710774     -1.57205137816208
  H   7.18974765561962      0.77265598686855     -1.73793320962364
  H   7.75807879344775      0.73873578822199     -0.06725354922308
  H   6.43772289854019      2.49562092051995     -0.43006511994991
