23
Coordinates from ORCA-job 6949optt
  Br  3.55728154580249      0.07418499485177      3.49789901552122
  C   4.98080083923624     -1.01815293679794      2.86671414255044
  C   5.16835928109384     -2.39267586861370      3.36702161653174
  C   5.33530036289465     -3.39283237421757      2.26529554797220
  C   6.53076339350263     -2.95411712120043      1.36528709150565
  O   7.07846667412110     -3.76175417072200      0.65090960054952
  C   6.97643227711992     -1.58651610382894      1.66175571344955
  C   5.93906056617340     -0.60229835695803      2.04510267561644
  C   8.22155833233174     -1.57751148442367      2.24685022945143
  N   8.63505821950457     -0.69136760424431      3.15263963665136
  C   9.45318047029445     -1.06673773040664      4.14414123880713
  N   10.20828908239678     -0.36271691979500      4.89939686327113
  S   9.56980183346828     -2.87741125632377      4.57910885623531
  C   7.90747270860550     -3.53843262328005      4.34499124766962
  O   7.72972533666515     -4.57492406355809      3.76225607774995
  C   6.79541904622141     -2.83285261100153      5.07503949051426
  N   5.69074069510369     -2.39854097022411      4.59824322969386
  H   5.57304912910056     -4.39093348744343      2.62634898208440
  H   4.42865301484137     -3.42919632529430      1.65481026894246
  H   5.98992553715387      0.41682847122427      1.68032804720976
  H   8.83961415976709     -2.45114060135260      2.02507031109311
  H   10.18958062957034      0.59223797940095      4.53935809412010
  H   7.00346686503073     -2.64013883579083      6.12543202280929
