29
Coordinates from ORCA-job 6960optt
  Br  1.47810368574115      0.41896385747133      1.08093741904448
  C   3.27484534142043      0.23971860063771      0.41287840946913
  C   3.76452533503909     -1.05390097957355      0.17682656149338
  C   2.98596439248399     -2.30939183365238      0.45844312465870
  C   3.65392928718336     -3.50933843903678     -0.18958913358877
  O   5.03592818896543     -3.54341062188797      0.09717817692325
  C   5.70583585053076     -2.47829657653531     -0.54573469509413
  C   5.09344964130769     -1.12291950730300     -0.27475296704159
  C   5.84937175023718      0.00900386370092     -0.49440457387214
  C   5.32292301556974      1.31328895217535     -0.29226764905394
  C   3.98786769224503      1.38766107478510      0.19975754040831
  C   6.04782914927180      2.51937627392986     -0.53507424462274
  O   5.59661869992366      3.67605400696404     -0.28914241183168
  C   7.43323337498386      2.41813836339261     -1.13387203511160
  O   8.46782167729735      1.99178081750448     -0.20248938873270
  C   8.57651313699163      2.72473186904222      0.91454124559937
  N   9.48213451214318      2.55924366403360      1.77982133830996
  H   1.96214227558893     -2.22310893597980      0.08533520511189
  H   2.90874969834081     -2.47971834110227      1.53902546657647
  H   3.51053007598795     -3.47415014540613     -1.27964638906504
  H   3.23471208266631     -4.44497500693570      0.18283845692358
  H   5.71268072221422     -2.66786932925448     -1.63010868333424
  H   6.73768072288197     -2.50070310491690     -0.19492917957687
  H   6.88376380247256     -0.11070724794230     -0.79956094362747
  H   3.56479944026425      2.36426596705842      0.38716459712403
  H   7.70246854656259      3.40342964607668     -1.51838512252704
  H   7.49802910001299      1.68369941867784     -1.93680663263812
  H   7.81351573846126      3.49437003075774      1.03602337610710
  H   10.08803306321073      1.78876366331867      1.49199313196840
