28
Coordinates from ORCA-job 6962optt
  Br  1.00120699911478      0.69619400346148      0.19312928959170
  C   2.90428642553251      0.33389618440479      0.00716380864138
  C   3.32395682173388     -0.96373234720210     -0.04413246892687
  C   2.42575272080146     -2.16802836924339     -0.00021719054080
  C   3.10082173661623     -3.35352093644421     -0.67239956206523
  O   4.38404214215462     -3.59188137229293     -0.13974314443877
  C   5.26998011700436     -2.53222061216022     -0.46007436833665
  C   4.73765287856426     -1.18523246590731     -0.07590742848279
  C   5.56751638412401     -0.02428875007340     -0.05537222201878
  C   7.06763221365906     -0.20193046360482     -0.10611217863772
  C   7.63772232176918     -0.63546726125764      1.17723212226078
  N   8.09224037452480     -0.95408952050713      2.18202374185449
  C   5.00230573509029      1.22114837447520      0.01538115237093
  C   5.80546058106760      2.49105980532487      0.10958100756706
  C   6.42212066710815      3.00530858014564     -1.16499307509029
  O   6.72834311490943      2.34573281755429     -2.12253159553689
  N   3.65318125159431      1.44913969746042      0.02469508216278
  H   1.47236632814051     -1.96247742517889     -0.48830734052138
  H   2.21017662877286     -2.43213467787987      1.04129099390914
  H   3.18405671732916     -3.17037630747830     -1.75479317420867
  H   2.52624138524646     -4.26902892689439     -0.52300942346282
  H   5.47269692016097     -2.59620506927472     -1.55230511656017
  H   6.20672442907870     -2.75981937284781      0.05442187443693
  H   7.57151549879469      0.71489393199839     -0.40672269553895
  H   7.33827383465277     -0.95399561683917     -0.85236781451616
  H   6.64105605610664      2.40114697862455      0.81874301647284
  H   5.15653628112099      3.27387896454383      0.50709252351648
  H   6.64413343522715      4.09403015709286     -1.15976581390159
