21
Coordinates from ORCA-job 6964optt
  Br  1.07222738147708      0.12545603780431     -0.18624519099507
  C   2.96514724723450      0.00990021659175     -0.13136416869335
  C   3.61885255545807     -1.17502268923042     -0.09695403255060
  C   2.96018794101491     -2.46608959073397     -0.08538250075768
  C   3.66909481710287     -3.59593948736711     -0.05117047869405
  O   5.01170595330491     -3.63839108279327     -0.02685237332004
  C   5.68921331104295     -2.44952861780612     -0.03400346145558
  C   5.09331845127224     -1.22854684312741     -0.06623332817839
  C   5.85673299396293      0.01148994022924     -0.07407071901989
  C   7.29328646736652      0.06012738550750     -0.05580973265794
  O   8.05504412249605     -0.90988406799453     -0.02793237896818
  C   5.11844381855648      1.20712229768441     -0.10180435118209
  C   5.49792090235845      2.59711949254339     -0.10766468449577
  O   6.56689841078388      3.17545187101828     -0.09547248246152
  O   4.31330672134719      3.30576825870520     -0.13232640664799
  N   3.20471097972702      2.45041166759530     -0.14690361273870
  C   3.70103671887383      1.24567706196901     -0.12817522341996
  H   1.88241595605668     -2.52414207964162     -0.10190551869403
  H   3.23303449620813     -4.58477873828846     -0.03829284596927
  H   6.75608400991923     -2.58518843133156     -0.01160334907134
  H   7.70333674443603      1.07998739866611     -0.06983316002855
