25
Coordinates from ORCA-job 6971optt
  Br  0.78725079971398     -0.31139547530716     -0.23975541910458
  C   2.68447343627745     -0.17828931107580     -0.14766707996790
  C   3.29338879888744      1.08465700389606     -0.13460023642100
  C   2.52531637217262      2.37806258100643     -0.12908930244100
  C   3.44043532439186      3.51932148189875      0.30775763216886
  O   4.63122639475613      3.52468758682341     -0.45074522897954
  C   5.43480618964346      2.40077715851355     -0.13496726157301
  C   4.67898923347555      1.09528418140182     -0.11607953237523
  N   5.45641796692480      0.01242378650801     -0.07004372430044
  C   4.87733213973818     -1.20121130805961     -0.04710316442569
  C   3.43478371171497     -1.36243950174253     -0.10050068799673
  N   2.85461854151020     -2.57962190142813     -0.10022070341391
  C   3.69692602347407     -3.62280075535162     -0.03520364496602
  C   5.06454166672435     -3.47595765714165      0.02447435380869
  N   5.67790618762407     -2.28002187346562      0.01862969069841
  C   2.78978841997155      4.82597809806370      0.16869504584305
  C   2.22703275515660      5.87881354518672      0.06993839210646
  H   1.67690616551842      2.31632430233986      0.55580343573103
  H   2.11691572076902      2.60524124184796     -1.11863937664571
  H   3.69289580658200      3.37706900812203      1.36952244697539
  H   5.92259015011815      2.55515684031110      0.83845272948951
  H   6.21458675027152      2.34833578955033     -0.89363661687136
  H   3.25028320006876     -4.61223158718416     -0.03102713668330
  H   5.70320826244678     -4.35295071770804      0.07554313213285
  H   1.73637998206801      6.81678748299459     -0.02453774278883
