28
Coordinates from ORCA-job 6978optt
  Br  1.17468813460333      0.70931614365310     -0.15439286063963
  C   2.41152958410907     -0.67710921605524     -0.61301799254939
  C   2.90902302771729     -1.57829052641486      0.35962858751700
  C   2.14317254352727     -2.05109077157902      1.57190742274582
  C   0.67543692744466     -2.48262899671774      1.37017254685410
  O   0.50401800010162     -3.73769354868668      0.69557459647840
  C   -0.59690584785891     -3.83212108294905     -0.20324514560694
  C   -0.14436032827431     -3.31952636904189     -1.54109251654988
  C   0.37117553445507     -3.94942294354838     -2.64148564890710
  N   1.22842653483576     -3.02645534596562     -3.22000292236377
  C   1.26566738461898     -1.92880856923872     -2.39343510250844
  N   0.33693974712109     -2.04957758143890     -1.48048812880504
  C   2.48041975915365     -1.17508555694104     -1.98743804325833
  C   3.68800095016210     -1.70897820408557     -2.28770586332242
  N   4.64516871509846     -1.72271440387977     -1.28005538278712
  C   4.16834931129115     -2.13506088395101      0.03773169192337
  N   4.89148190755863     -2.92605110059107      0.78517738179073
  H   2.08522555059740     -1.25504999996696      2.32856672325926
  H   2.70765725402781     -2.86818824504494      2.02614728037431
  H   0.13924071513051     -1.70085654310735      0.83635977669119
  H   0.22816999804662     -2.59296550041812      2.36822635491996
  H   -1.44765374482407     -3.25523351749746      0.17483759905674
  H   -0.87683516342110     -4.88611474925801     -0.24931502575886
  H   0.25877277344185     -4.94580300869488     -3.03368642189569
  H   1.90862157004667     -3.24580203984040     -3.92489001147185
  H   3.87537546413726     -2.32563901249082     -3.16331242399666
  H   5.51523339952182     -2.17034867185172     -1.52242072840005
  H   5.71796029763029     -3.24269975439784      0.28365425721028
