24
Coordinates from ORCA-job 6980optt
  Br  1.16258458108119     -0.48659877210128     -0.33129640578387
  C   3.02017695012111     -0.06804225460584     -0.21227900693097
  C   3.52214552703133      1.18245327506430     -0.28128031351438
  C   2.66176107879932      2.40144557324048     -0.49369301131025
  C   2.72336627771608      3.32031114094808      0.70630116610321
  O   1.87233318435347      3.31303375783207      1.56209291179795
  C   3.88161241563985      4.29295923039709      0.76607515789499
  C   5.15642014725422      3.86585703970518      0.11326832036556
  C   5.57197552282615      2.58624277248762     -0.22556370790433
  O   6.88958522899420      2.64562631259392     -0.61129460636055
  C   7.29552266967196      3.93718154237572     -0.53156669578336
  C   6.27787847030255      4.72002345889462     -0.10593849531095
  C   4.95703777985478      1.30344791141961     -0.23876969929086
  C   5.73253897297886      0.12033301375684     -0.26033288383401
  C   5.17277042500168     -1.15911096258484     -0.19423896075921
  O   5.69123586010086     -2.25754094595815     -0.18291358309300
  O   3.73247749878588     -1.19493026978387     -0.09443640941068
  H   1.62458438014985      2.11866006379935     -0.64827020603988
  H   3.03611247873716      2.94142702912767     -1.36891334507229
  H   4.02739166421079      4.55338835393939      1.81785811542817
  H   3.50480917671792      5.20196920646790      0.27731466782459
  H   8.31877884784866      4.13488376709136     -0.79820367692897
  H   6.32027298265813      5.78475965606740      0.06370215190742
  H   6.80962787916393      0.16922009982533     -0.28962148399434
