24
Coordinates from ORCA-job 6989optt
  Br  1.02391593158805     -0.00301663068167      0.42493922680764
  C   2.90056530043600     -0.06323215987447      0.15556824681279
  C   3.52459148626394     -1.28881726810813     -0.14533271272579
  C   2.90335398569952     -2.64631379617538     -0.01308122187106
  C   3.91675464940849     -3.78524508467456      0.03330598603213
  O   3.57217531078622     -4.92928704251828     -0.14321872570519
  C   5.37093998854671     -3.45032231024754      0.34790228145694
  C   5.83501073978380     -2.32259691761434     -0.56203088179210
  O   7.09421236629223     -1.75607877628176     -0.14683229685429
  C   7.01183686665126     -0.33179938546120     -0.16946439246694
  C   7.91928329459872      0.19172940646462     -1.22749727542927
  N   8.62622534689403      0.61558657398171     -2.02517765028949
  C   5.56148991991594     -0.02755596697451     -0.38003161257269
  O   4.99787624133063      1.14481652174400      0.04768928001638
  C   3.59807145921989      1.18139134146184      0.23974021410409
  N   3.08229384969172      2.32078954670014      0.51000614759898
  C   4.87084919529342     -1.19786315354883     -0.45769735071137
  H   2.18583052372920     -2.88410055538932     -0.80519755866094
  H   2.32720396972667     -2.70907999348495      0.91932838395221
  H   5.96418920535101     -4.35843694850940      0.25351911606925
  H   5.41967029194894     -3.08491728583424      1.37826955585021
  H   5.95888488428466     -2.70027094439318     -1.58424263019646
  H   7.38087434960576      0.07232109177512      0.78234606673877
  H   3.81690084295305      3.02329973764435      0.50918980383620
