23
Coordinates from ORCA-job 6991optt
  Br  0.97681157300562     -0.18383288628791     -0.16724673442802
  C   2.89236440695372     -0.06162497534245     -0.08684370562083
  C   3.54039580448619      1.19902937743798     -0.02557514548207
  C   3.20188463573620      2.59174427852189      0.02357624154218
  C   1.91000888924443      3.23354553947941      0.04010605451364
  O   1.73453135481474      4.44275156105350      0.07622148045078
  C   4.41269112628083      3.30529244555952      0.07275815629621
  C   5.49710282334307      2.42213320572841      0.05647057823294
  C   4.95943560817981      1.13297439062233     -0.00586077024856
  N   5.61580421020082     -0.08149126151044     -0.06948082242968
  C   7.05726142567464     -0.11043496036902     -0.08414966270730
  C   7.66307553362162      0.13879057679510      1.23129175161116
  C   8.15955513411211      0.34580964029320      2.30100804319180
  C   4.84228701662259     -1.25143088595751     -0.05959200045463
  N   3.50243559886913     -1.20189333097445     -0.08973558781053
  C   5.49017404933224     -2.49895712077258     -0.05361705510349
  N   6.05767730999669     -3.51020224993551     -0.05357933047625
  H   1.03259733319398      2.56837013556373      0.02120325125979
  H   4.46377516781216      4.38217854131226      0.12833291115599
  H   6.54326624236608      2.68072733275301      0.11907050130375
  H   7.40794266892616      0.65277432581321     -0.78494081904177
  H   7.38889824599835     -1.08145398358153     -0.45290186452616
  H   8.58502384122870      0.53020030379784      3.25748452877103
