24
Coordinates from ORCA-job 6997optt
  Br  0.86481352420744     -0.18933789258504     -0.39413347772473
  C   2.75501910041279     -0.07798798217915     -0.23045723788690
  C   3.42882656358467      1.18032956672090     -0.13803215470075
  C   2.69671506100411      2.48790467930956     -0.24204508104609
  C   3.57995972526297      3.64070618857293      0.19416807703867
  O   4.85618714032458      3.56530236435122     -0.41390308697568
  C   5.58715915467661      2.44112128244089      0.03844343051951
  C   6.13298805989538      2.69302670880560      1.38904433214265
  C   6.56498749281020      2.92512877252121      2.48329796107692
  C   4.80131714658875      1.13844564810242     -0.00480460284453
  N   5.58260402934744      0.04634198355777      0.06320936221951
  C   4.91279583209656     -1.15236497040704      0.02749760545707
  C   3.51011696829452     -1.23851898164137     -0.12277808332414
  S   2.98689731653673     -2.88418524595182     -0.15575150768968
  C   4.61073052767035     -3.47034408818743      0.02235949283491
  C   5.50577556945949     -2.43515681174588      0.10591393724147
  H   1.79775930762145      2.47200620776829      0.38203974198647
  H   2.35228911022648      2.65091268349688     -1.27130842661136
  H   3.69636681600261      3.63824277173289      1.28530068967292
  H   3.15965312184229      4.60106824903354     -0.10804331932299
  H   6.42934044628775      2.32827825005682     -0.64731731935583
  H   6.94696162022984      3.10743196433782      3.45785955126439
  H   4.79686372897673     -4.53003759216009      0.06261929859582
  H   6.57287263664018     -2.56831375595093      0.22182081743236
