24
Coordinates from ORCA-job 7187optt
  Br  1.12375947828605      0.33113983448084      0.15901471261263
  C   3.01596831431390      0.15604194510893      0.08937633341652
  C   3.58981258529243     -1.13547294858309     -0.00295872776801
  C   2.80805691178228     -2.38817710985740      0.23653531407838
  C   3.70678937796724     -3.56639611773209      0.53892844549392
  O   4.46627689176817     -3.96447969601611     -0.60670457246812
  C   5.70692419153059     -3.46478617051404     -0.82287138873535
  N   6.57071701281845     -4.09908533077789     -1.48729902259327
  N   5.92265338659354     -2.18874550090907     -0.30285628099115
  C   7.21751066464795     -1.60791368599314     -0.22099160193805
  O   8.28448274952959     -2.16998516236582     -0.21655123359746
  N   7.00230734033391     -0.25260418668694     -0.15666914023652
  C   5.64876039876733      0.04284654270824     -0.39355569496570
  O   5.15596999307859      1.22613383206016      0.08292748469445
  C   3.75158860434466      1.36880209175083      0.10202054160425
  N   3.28502956833507      2.56061638445753      0.19206219104796
  C   4.94442168882772     -1.14314369080560     -0.31089617701226
  H   2.16914601868518     -2.64023662414273     -0.61870352948669
  H   2.13316980352203     -2.24022494508049      1.08413508469779
  H   3.11719336768984     -4.44580290175285      0.79787681830153
  H   4.38311439442092     -3.34017307073738      1.36630591547949
  H   6.19955310374998     -5.02273887584841     -1.69551977366025
  H   7.76794451244763      0.35872248443860     -0.38431195910495
  H   4.06084964126681      3.21666290279795      0.17470626113087
