23
Coordinates from ORCA-job 7188optt
  Br  0.78405724738351     -0.27790534294809     -0.63885762284042
  C   2.91569757788553     -0.09861154711531      0.50650843270730
  C   3.65239259215401     -1.24618420055366      0.44397637906293
  C   2.99518651303725     -2.57681311871933      0.70392441039799
  C   3.03835876175239     -3.46551848069479     -0.53449296550260
  O   4.31446317440951     -3.47695683523666     -1.18215555054887
  C   5.47228272880759     -3.48101211768699     -0.47659937184166
  N   6.29093422503908     -4.44621612253676     -0.46396177236029
  N   5.81945175694266     -2.28220992258816      0.11542211811539
  C   5.04289715094868     -1.14104460686853      0.19467214712082
  C   5.61795686428869      0.10668276858968      0.09519072138170
  Br  7.47197597214286      0.31997911360535     -0.18372561582090
  C   4.84139579604110      1.30661311253243      0.16042416095070
  O   5.22078553700667      2.44385699589378      0.06030685594158
  O   3.47479702734816      1.09245680719447      0.35614087638049
  C   3.55234092507365     -3.26437614942530      1.87689040794260
  C   4.00658963946028     -3.84928969947888      2.81921413707855
  H   1.94000614627141     -2.36606949776762      0.89778708555942
  H   2.34999362807992     -3.05863550319229     -1.27312786552272
  H   2.76169737774970     -4.49282427015951     -0.28401653101263
  H   5.89864049699852     -5.21962645561114     -0.99171971474968
  H   6.80474666379233     -2.19700156938302      0.31717073724922
  H   4.42535219738629     -4.35629335784958      3.65402854031108
