23
Coordinates from ORCA-job 7193optt
  Br  2.36489021088644     -1.27399609575485      0.90308918962667
  C   2.62179742482192      0.39643162863673      0.00820015352780
  C   2.13312449970663      1.56271498748455      0.44932713291324
  C   1.31940129919523      1.67399904130928      1.68229843252395
  C   -0.00567737219961      1.63881555352139      1.69500861427494
  O   -0.77005567395364      1.56152807313694      0.57034745040668
  C   -0.43126071958077      2.49115749154849     -0.43398814770923
  N   -0.45058740628486      2.12859840576725     -1.64738231745415
  N   -0.27428981873612      3.75134536648952      0.04308725139096
  C   0.84379173551369      4.44724806391341     -0.09054099028347
  C   2.16552829507283      4.01152214334893     -0.30407251118997
  C   2.68896110674053      2.72326154515342     -0.24680222417423
  N   4.00392017153841      2.58141513907390     -0.68081952355772
  N   4.47403951173677      1.47947642344187     -1.01002248746156
  N   3.51358972298838      0.40083105791921     -1.05302346010517
  C   0.69596684838566      5.87967794870643      0.05348100479217
  C   0.58356166696299      7.07115848210565      0.17219515153388
  H   1.83758294456799      1.76241081532871      2.63058920922271
  H   -0.57932981507393      1.65466046840335      2.61456493467724
  H   -0.61928883667851      1.12622174157954     -1.69123002021704
  H   2.88129613642538      4.77895521220486     -0.57362027541373
  H   4.01852126204210     -0.46100589114910     -1.18880521076120
  H   0.47251680592247      8.12257239783048      0.27411864343724
