24
Coordinates from ORCA-job 7196optt
  Br  2.06782183542983     -0.93391520562133     -1.92879066385023
  C   3.38032686447357     -0.02683115979805     -0.74276041413315
  C   3.77977704841826      1.29246571946904     -1.00800320530404
  C   2.99960315264161      2.34721630843293     -1.62843531782673
  C   1.67815218914972      2.33163235116964     -1.91083334936005
  O   0.91455151182903      3.50455360720662     -1.72955422522751
  C   0.19372849296712      3.41995352574706     -0.56159808303354
  N   -1.05275980117532      3.60516685198414     -0.59855162247613
  N   1.00010442678093      3.15860236743121      0.55714332125944
  C   0.65189162304592      2.20434695470026      1.56598932156180
  N   -0.25568625985288      2.39803696288907      2.43002443656914
  N   1.29517447180752      0.96657685442496      1.46918395745977
  C   2.52529552623569      0.84611622903140      1.19311660301755
  N   3.14224725552323     -0.30054764245152      0.66421097019948
  O   3.41431890673422      1.86377816451457      1.27539242236769
  C   4.35373037671758      1.91823078432062      0.19132921304025
  N   5.40291383666977      2.59672192358402      0.33310319270560
  H   3.44864827252121      3.33596436958886     -1.55782209748459
  H   1.06738795822108      1.45063641436838     -2.02393543337729
  H   -1.44209058019974      3.57396632070082      0.33942144743438
  H   1.96485657137940      3.06282609429343      0.27819748889628
  H   -0.59436277516305      3.35309504468751      2.34351739924276
  H   2.58806566547363     -1.13521703658864      0.79508285283543
  H   5.42630343037161      3.01962419591496      1.26057178548369
