24
Coordinates from ORCA-job 7197optt
  Br  2.09259171149649     -1.37976885098400      2.08702657399103
  C   2.94500187580679     -0.32334476963585      0.75678541157129
  C   2.30046688297625      0.78726247273683      0.25947942365102
  C   0.98537834545975      1.20837216205619      0.75938668357472
  C   0.02443354768705      1.59716764834824     -0.06380433661632
  O   -1.08532901504982      2.30867775788243      0.35877632280679
  C   -0.95352535748892      3.68798435143725      0.41788546911737
  N   -1.93832225811519      4.43774420447132      0.17952986143968
  N   0.25383545316649      4.15823422726983      0.92277634254969
  C   1.35315554931947      4.00404368173319      0.32554270433086
  O   1.48448117896050      3.57074750928392     -0.93232144972418
  C   2.64380633428450      2.84482921617559     -1.23542508153899
  C   2.98292297823333      1.59184776598231     -0.73522647696994
  N   4.17387142233981      1.12559479310307     -1.26271348768422
  C   4.71770020995788      0.05849712071086     -0.78162533363784
  C   4.22405733749140     -0.76552599019768      0.30291086253306
  N   4.85380843226842     -1.81072872351314      0.79318268423039
  H   0.83735583602340      1.31193365619972      1.82940851927928
  H   0.09548742496600      1.49643887761626     -1.13995302552072
  H   -2.72097591153937      3.86115037120958     -0.12146373735871
  H   2.29251089753069      4.23984208846841      0.82441476735256
  H   3.20939007504053      3.26325625044504     -2.05202731510178
  H   5.65516917053274     -0.26277020595956     -1.23853733022984
  H   5.73372787865179     -1.92248561483982      0.28999194795483
