20
Coordinates from ORCA-job 7199optt
  Br  3.90817850893141     -0.41529184654093      3.16124846086588
  C   4.40025990896974     -0.46239925584637      1.32729323872030
  C   5.58528086973253      0.15470541145434      0.91605553325834
  C   5.93439523084219      0.27651352142210     -0.48568203778274
  C   5.60398004425050     -0.71362051263977     -1.32607677995258
  O   6.54850368121432     -1.18079982249754     -2.22313362688546
  C   7.75404434696111     -1.62565786260775     -1.67650201394510
  N   8.67237490957940     -2.04324796053999     -2.43414933897071
  N   7.78987877256774     -1.60050612318280     -0.28836137719656
  C   8.85640031869548     -1.30630899649629      0.33485400132666
  S   8.90721196549276     -0.97593791006260      2.06696719703906
  C   7.20623870753735     -0.58577642429896      2.40297749010545
  N   6.73178515714535      0.34750513247284      1.59431997529799
  S   4.17967378536985     -1.69330163500805     -1.15767091157983
  C   3.51677246707084     -1.19166984407254      0.48989639255462
  O   2.42613335984856     -1.65629551948136      0.74393808782139
  H   6.86430832413655      0.79785093347550     -0.66479306957242
  H   8.37352960503689     -1.98096556513275     -3.40501466733322
  H   9.80867807758576     -1.14338328431678     -0.18072552322530
  H   6.60937195903157     -1.40341243610029      2.80055896945423
