24
Coordinates from ORCA-job 7200optt
  Br  0.94207907021051      0.02018196193239     -0.30871747720056
  C   2.80897632388828      0.00273453541320     -0.04041849474851
  C   3.48499311136020     -1.22096861567517      0.07209477239096
  C   3.16391620756045     -2.59658771575352     -0.04566640048446
  C   4.33411507033059     -3.27777347990838      0.10283241587336
  O   4.58057604729270     -4.60411538112052      0.29895188755647
  C   5.38980430133909     -5.21778770535090     -0.60484523036846
  N   5.79417395393473     -6.39901215412421     -0.48675153824550
  O   5.40084554150684     -2.44593110884327      0.35230595051457
  C   4.88542144214644     -1.17436983430037      0.29749949175670
  C   5.57282948356063     -0.01589361203052      0.37734155597298
  O   4.87694166994311      1.17365851501138      0.26040890389278
  C   3.49904678063827      1.23243446197331      0.04568583982235
  N   2.97421769076775      2.40793250506163     -0.05718793161555
  C   3.87136537975603      3.52098726064437      0.07089015538078
  C   4.45609044282119      3.67166726098352      1.46264732073143
  O   5.26428926938310      4.50592153685249      1.77729337454277
  H   2.19450429213178     -3.03281352058975     -0.21789982813864
  H   5.65643818627741     -4.59141174259849     -1.45474104800001
  H   5.43996363902465     -6.80525254563181      0.38017924007508
  H   6.62811469410581      0.11617447017587      0.54268394162973
  H   3.32665274271247      4.44783405977830     -0.13569235042538
  H   4.72727023763732      3.49810090127936     -0.61809221295908
  H   4.06137442167053      2.94928994682112      2.20519766204619
