27
Coordinates from ORCA-job 7202optt
  Br  1.53144427053839      0.40043666216865      2.52124840899240
  C   2.48615650802069      0.48217153631496      0.87070140702072
  C   3.47351504504748      1.48805930834969      0.64482724008889
  C   3.22287180761803      2.89684197258352      1.10547434535479
  C   2.14792893688103      3.56926793292013      0.23418508271480
  O   0.80896763510921      3.24428887237538      0.62089741978881
  C   0.08676038200941      2.26456001434530      0.06320501175631
  N   -1.03814473671907      1.99068406998759      0.57001174697245
  O   0.66290765134247      1.73868981363146     -1.03370293887783
  C   0.26809368087485      0.43512828787685     -1.46887422278018
  C   0.74591241169731     -0.68030338285167     -0.52457562608815
  C   2.18742573519048     -0.36965939975824     -0.21342085753672
  N   3.04937439871605     -0.61241560142740     -1.16863623170575
  C   4.27661097584572      0.02117722354379     -1.08911302559801
  C   4.40572939249392      1.20937180547305     -0.31733069502774
  C   5.27575514693673     -0.35469985542325     -2.01192314300736
  N   6.11502776797937     -0.64224554353464     -2.75812760066136
  H   4.13687468972900      3.48742639296792      0.99871036986186
  H   2.90442481410953      2.94746396892806      2.14924035486540
  H   2.31361176125491      3.32571364731886     -0.81417125520371
  H   2.19747979947046      4.65203308093707      0.36312629519260
  H   -1.50279483597564      1.25441067427583      0.05245112093484
  H   0.76942890536465      0.31954919182511     -2.42716716119143
  H   -0.81418904512913      0.40408564199462     -1.62950529796651
  H   0.65519849257414     -1.62580785363402     -1.06150892746790
  H   0.13435198983990     -0.71460614382320      0.37658223224955
  H   5.16427641918004      1.94137768263457     -0.58060405268076
