24
Coordinates from ORCA-job 7204optt
  Br  1.32837910804032      0.12962541080118     -0.49832113645875
  C   3.21197107945975     -0.13411114238194     -0.40885490652909
  C   3.75455431878058     -1.27136880687251      0.02069903532162
  C   3.06751141615644     -2.50732907915809      0.47466973563679
  C   3.64423381446531     -3.61980928808637     -0.35977672504571
  O   3.17697862318762     -4.85745709842669      0.12830729687909
  C   3.48303546799889     -5.93808586186472     -0.62633284396776
  N   3.16137120813599     -7.11442791181430     -0.33175690478463
  O   5.04548134051262     -3.64910755255668     -0.28072226340750
  C   5.82758231092512     -2.50817546598371     -0.16248703406577
  O   7.01921754566738     -2.66916453173287     -0.20225603162351
  N   5.16959636472541     -1.33369983609912      0.00713713904165
  C   5.87589781615848     -0.06920475169349      0.25032411846705
  N   7.03062323542908      0.01455484877699      0.86545470968615
  C   5.19458972924394      1.09921263818525     -0.18679248971331
  N   5.57609057028056      2.32725769882347     -0.13156282488669
  O   3.90297258743128      0.92878356464353     -0.78166251047518
  H   1.99136060907940     -2.44989739660776      0.33844613315902
  H   3.29228209012829     -2.71831482513346      1.52431796636259
  H   3.34996853268845     -3.51393604765412     -1.41090817967525
  H   4.04197073116534     -5.71351679359963     -1.53372623131235
  H   2.66336848322295     -7.13142590479764      0.55919496895711
  H   7.43026154320245     -0.90611328540847      1.00407845015011
  H   6.51270147391428      2.31371141864115      0.26953052828434
