23
Coordinates from ORCA-job 7205optt
  Br  1.16928869030722     -0.16929496724069      0.18489902665293
  C   3.06513756930474     -0.01256053865362     -0.02156795855870
  C   3.78252083817591     -1.15908508321783     -0.42768005609165
  C   3.06086031080491     -2.33992764697269     -1.03249244602830
  C   2.48394222032706     -3.36944449134288     -0.07481924843508
  O   1.44215026323593     -3.93462846745482     -0.27015191449600
  C   3.25023444418068     -3.71856387055454      1.21068871026973
  N   2.70238660126129     -4.19739909931701      2.22846848966224
  O   4.56907505658146     -3.38928044551443      1.24202128795066
  C   5.32921209080194     -3.63443960657438      0.11742327316548
  O   5.53027582700708     -4.75233877626893     -0.28205973999512
  N   5.82195598420874     -2.49352649349173     -0.40628924511250
  C   5.18423547128856     -1.21713768610363     -0.25886699142413
  C   5.97691023461326     -0.15204811673360      0.06223038431477
  S   5.35945112409188      1.47448131755073      0.04046871676361
  C   3.58904146404770      1.25203828720424      0.33873694378703
  N   2.91101786396590      2.26246098738274      0.76972130145788
  H   3.73567471214098     -2.89399036104076     -1.69383311890217
  H   2.21855528457451     -2.01578516201311     -1.64174727764552
  H   1.70994325757729     -4.31452443313893      2.02103383215103
  H   6.45727597362191     -2.63181157258989     -1.17754933496890
  H   7.00717666497910     -0.28102829692450      0.36015486195535
  H   3.52367805290188      3.05083452301028      0.96021050352735
