22
Coordinates from ORCA-job 7206optt
  Br  1.07957983470889     -0.54021417128203      0.38047867898007
  C   2.99627922713223     -0.33821265599282      0.21473519357566
  C   3.80782504791088     -1.45019004744243      0.06137968430265
  C   3.25512069732639     -2.79154437467180     -0.04110200403230
  C   3.98861303230020     -3.90039007490450     -0.09769716177393
  O   3.43010493971601     -5.16387380503474     -0.18265677981704
  C   2.48828031359294     -5.50109143806049      0.73597039476571
  N   1.81826435513376     -6.56036949268571      0.68811919480386
  S   5.72339591718013     -3.99802804622066     -0.08387254809162
  C   6.14936009805536     -2.28017016715598     -0.13263144507020
  C   7.54644046359438     -2.16016519940905     -0.22671530949409
  C   8.74753697008237     -2.26543221780193     -0.30582418778177
  C   5.22067113137956     -1.23528402785398     -0.02211447320203
  C   5.71887016615701      0.14813053626354      0.00599106976215
  O   6.92144999238364      0.44508864281492     -0.09606142811756
  C   4.69969927747096      1.14797461742131      0.16971574478174
  N   3.40903270331737      0.91573660068930      0.27384219444864
  H   2.17931335389697     -2.89770197102902     -0.09279575124155
  H   2.36682804209084     -4.77011743792326      1.53318223862417
  H   2.06627468691100     -7.10084314140040     -0.14129877665374
  H   9.80690695914339     -2.27219958339872     -0.37697041933690
  H   5.03115279051567      2.18089745507849      0.20932589056809
