25
Coordinates from ORCA-job 7211optt
  Br  0.95837702603341      0.16039524010632      0.17931062221384
  C   2.87161727354532      0.08489996030445      0.02629038879487
  C   3.48559781866950     -1.16537849539648     -0.18128749248733
  C   2.79286623707607     -2.46944501219532     -0.44483212327448
  C   3.58186931511598     -3.62781335202699      0.12160208921643
  O   3.09506608109069     -4.68087550521497      0.45065361539473
  C   5.07246536577391     -3.38135566265718      0.27781196176331
  O   5.54718034736271     -2.32231260840841     -0.51621998835198
  C   4.89174409297127     -1.12413157928025     -0.27543292068977
  C   5.63665907724034      0.01746069292524     -0.17550981624462
  C   4.98142624585794      1.27151332991602      0.01641853743334
  C   3.55682282118451      1.26152358886717      0.12390960417487
  C   5.65428999624167      2.50950874413930      0.11684312927148
  O   5.18497064893947      3.63455112875225      0.26754723271070
  O   7.07049128563302      2.34472490049712      0.02674026997512
  C   7.83759066939652      3.44077167655958      0.06950015979317
  N   9.10192863910889      3.41445600276109      0.00714116733627
  H   2.69675808880706     -2.66888111893695     -1.52523054288660
  H   1.78557507973355     -2.50722991318032     -0.03335372491070
  H   5.61171127149095     -4.28302787865421     -0.00937684805620
  H   5.26162003973131     -3.18328206903162      1.34199427719619
  H   6.71189220067253     -0.04561001237102     -0.25045854078437
  H   3.04348454605331      2.19731219373295      0.29016469066989
  H   7.28650692660947      4.37110492424498      0.16068855319577
  H   9.41848890566051      2.44712082454727     -0.07591430145393
