24
Coordinates from ORCA-job 7213optt
  Br  0.87731155052316     -0.39070830934184      0.21764150673256
  C   2.78335643449912     -0.20843428332437      0.10370976637466
  C   3.53122447070201     -1.35344420677212      0.11134067482654
  C   2.99218608328135     -2.75160319591671      0.12296365921101
  C   3.99403396501371     -3.65588955487553     -0.57265992203099
  O   5.27306827535433     -3.60932815783953      0.03158440822677
  C   5.84115733319982     -2.35895330524910      0.20211736706307
  O   7.04067466560294     -2.32518035193842      0.40933984654563
  C   4.95583631604132     -1.23105364062482      0.14177829507841
  C   5.47736122863960      0.08484319062963      0.23598261066642
  N   4.76047969453714      1.16696165440305      0.21234756006750
  C   3.38831682684925      1.08052154460989      0.09931169617817
  C   2.76061746075914      2.35971482633038      0.00244077766448
  C   3.28653425581061      3.62572744318491      0.11333485050767
  N   2.28889624086157      4.55763177958467     -0.09512531973961
  C   1.23401046174603      3.85785668943980     -0.32124526380623
  O   1.42941070798645      2.52249729639085     -0.28265470075509
  H   2.02744216958992     -2.81256645236211     -0.38024045487999
  H   2.84821961502700     -3.09445821778622      1.15374841482358
  H   4.07999482798556     -3.36093350072297     -1.62511750018327
  H   3.68150465904893     -4.69958482653582     -0.53152670638738
  H   6.55231875179599      0.20128710468728      0.33378895217914
  H   4.30496032654050      3.89317875686343      0.32496548265120
  H   0.23308367860448      4.19691771716566     -0.52882600101426
