21
Coordinates from ORCA-job 7216optt
  Br  1.18118564054447     -0.59940198330383      0.19299020824725
  C   3.00705332083757     -0.15058159538595      0.12870520449587
  C   3.58464726880158      1.07939179381334      0.07935400174115
  C   5.05374563389905      1.09372960381741      0.04830500439639
  C   5.72744511498532      2.24778781292034      0.06421148873741
  O   5.13223861442308      3.45730812026237      0.11555288567053
  C   3.74167877075899      3.57456717737273      0.09740725807281
  O   3.33594469932024      4.72154093205801      0.12272814051646
  C   2.92292997498289      2.37762192115079      0.05573244832596
  N   1.59451007343580      2.39648518845657      0.01499642493485
  C   0.89251734738925      3.64789293539998      0.01176006228412
  C   -0.56286227653502      3.39733534811873     -0.01810500387742
  N   -1.70079480940442      3.25295361689302     -0.03665221235383
  C   5.69450687140037     -0.21223999643084     -0.04333171349102
  Br  7.58947782189601     -0.30974833244401     -0.26400232918279
  N   5.10530748422419     -1.33385493423438      0.00604095545950
  N   3.77730833267855     -1.32310795013003      0.21981879239693
  H   6.80373433331997      2.31567363559152      0.02979658282143
  H   1.12703551033679      4.28488410675927     -0.84940132491560
  H   1.09225728153730      4.27157168591665      0.89035733736289
  H   3.32713299116800     -2.18880908660169     -0.02526421164289
