24
Coordinates from ORCA-job 7219optt
  Br  0.98619432454386      0.05522138776427     -0.41058888062696
  C   2.88701434869828      0.05803700166944     -0.19127490900116
  C   3.53870223452926     -1.14089707956435      0.17062865396194
  C   2.83127334095739     -2.44423958329018      0.44788002724804
  C   3.32880535447693     -3.53447460603904     -0.47890283010679
  O   2.66823294543201     -3.96297943183691     -1.39518450625723
  C   4.68118772784726     -4.19094827586833     -0.17199543081981
  O   5.81725937791509     -3.36307740825210     -0.25400424498541
  C   5.82170615508036     -2.28814465505416      0.66485062376745
  C   7.21334104563498     -1.65028841902062      0.62651561078208
  N   8.33890942494306     -2.19133003285818      0.77012977482983
  O   7.09991279632355     -0.32327172631867      0.38265447200975
  C   5.74089806216090     -0.04727391470086      0.19940520498049
  S   5.26490228727137      1.56090658162382     -0.19937456505168
  C   3.46308445120406      1.33150580258274     -0.42257045496086
  N   2.82495502979998      2.40081773154719     -0.76882243093861
  C   4.93550870973048     -1.12919068941037      0.32770164334743
  H   1.76005740459694     -2.35027298001272      0.29920166402589
  H   3.01312957657811     -2.76056597648580      1.48668801878350
  H   4.82629930993326     -4.99024933891207     -0.89571740455249
  H   4.60884912762323     -4.62352140457467      0.83999999829303
  H   5.62706878012578     -2.69200356384039      1.67209317802766
  H   8.20318039755778     -3.18895458782577      0.91782820861726
  H   3.45152778703604      3.19419516867775     -0.86814142137335
