24
Coordinates from ORCA-job 7222optt
  Br  0.86657744939351     -0.18283896639871     -0.14626677917222
  C   2.75082575465108     -0.02308897962591     -0.24813615198229
  C   3.34163263040299      1.13819110280639     -0.72537059402931
  C   2.87749572225208      2.57882643346694     -0.80313066769520
  C   4.12082613658035      3.35094091919223     -0.26475237825474
  O   4.12150519513095      3.27672630949085      1.16788133429821
  C   3.44165235900095      4.19936065404229      1.82422280799930
  O   2.83477727407707      5.11803386929928      1.34627064859647
  C   5.32462011108331      2.51005661090887     -0.76069540714845
  O   6.46343914752593      2.35319225685877      0.07905434413442
  C   6.56721238051670      0.99783137011156      0.48486696289181
  O   7.41758581730212      0.66836627546323      1.28493157664635
  C   5.52640002153439      0.26178728180355     -0.16053849455244
  N   4.95023569150799     -0.95210691204780      0.20053295563755
  C   3.55006264073589     -1.15582247331554      0.19288618388843
  N   3.02323042643071     -2.26696445481822      0.58117975102510
  C   4.71532243881620      1.16367963519438     -0.81327873911210
  H   1.99584604110581      2.78282725363016     -0.19513074413817
  H   2.65770665940586      2.90287827367714     -1.82473190002011
  H   4.14067316008659      4.40084535776592     -0.55686344812535
  H   3.51653930617413      4.00845450788186      2.90204878571414
  H   5.67069374643527      2.91610596106090     -1.71916924957331
  H   5.48152209367446     -1.57438327155979      0.78816175989818
  H   3.74861779617557     -2.91889901488840      0.87202744307372
