23
Coordinates from ORCA-job 7224optt
  Br  0.77081692041681     -0.66779414908578     -1.32010541128424
  C   2.36498171824408     -0.08491206268137     -0.46279577634167
  C   2.58576369540756      1.25409910345749     -0.27874183500640
  C   1.84013458832540      2.45261764235036     -0.70466062078583
  C   1.54226994162467      3.25127823532236      0.31622699711837
  O   2.07741597523196      4.50954087843981      0.34578461792829
  C   3.48638429116485      4.38148674807185      0.42337023283286
  O   4.09899259167890      5.41941295958203      0.45478390071394
  C   4.13048029990938      3.06331130443551      0.55163149205851
  C   3.78856087893358      1.71163931309328      0.34383049414222
  C   4.79405561213538      0.68160433285063      0.72655047284538
  O   5.88098156831842      0.98803156662520      1.20437253787255
  N   4.45869576457210     -0.65255718859455      0.55071517538896
  C   3.33020432408983     -1.01234399257908     -0.00271087358058
  C   3.09866991465784     -2.50814341672688     -0.12669370178251
  C   3.31008309131985     -3.00407031811155     -1.48588231477143
  C   3.49622895252555     -3.40582091040795     -2.59953653183548
  H   2.20968356193658      2.93251715230222     -1.60868985579873
  H   1.20490610456916      2.87909329370075      1.27927775294201
  H   5.14988574072893      3.19818179942987      0.89058185191044
  H   2.08202454266008     -2.76159469189858      0.18300035415760
  H   3.80370237771794     -2.99278736310945      0.54766351003625
  H   3.66307754383113     -3.74379023646618     -3.59297246876052
