24
Coordinates from ORCA-job 7225optt
  Br  0.73117156350382     -0.30568848640242      0.89902525822836
  C   2.53420460681667     -0.10112119614378      0.37262876132338
  C   3.30644505689138     -1.25936919863928      0.09627060517184
  C   3.00465245152428     -2.64217238341525      0.05850578720862
  C   4.19968334351746     -3.27759508934761     -0.26976877260135
  O   4.47948741711058     -4.63473400011178     -0.43905031378561
  C   3.56757042356679     -5.58325693159473     -0.34072150189765
  O   2.39711455537363     -5.46880900162375     -0.10276599816293
  C   5.25386909074664     -2.35268336715196     -0.44598448917779
  C   4.68776675066895     -1.10834750292994     -0.21529150653758
  N   5.27811259548474      0.15896475958385     -0.26417023285789
  C   4.50159076562737      1.28047484264055      0.00230051446588
  N   5.19871045519128      2.49905982971445     -0.02838686447159
  C   5.88530648951935      2.97003568512361     -1.12660230763713
  N   6.10970243770030      2.39790563810767     -2.23602985816506
  C   3.15979151808661      1.15013661363365      0.29770542959471
  Br  2.18929528651285      2.76158058269488      0.59083911142107
  H   2.04823610757631     -3.09561057886154      0.24133368770950
  H   4.05750020254265     -6.55225779225685     -0.51570047385245
  H   6.27257344190797     -2.58663669512555     -0.71270950290363
  H   6.25599983318020      0.23905691599634     -0.02150770462777
  H   4.91970101069253      3.18843326839059      0.65094379170096
  H   6.29831015871269      3.96452926575329     -0.95041497474008
  H   5.66820443754487      1.47810482196554     -2.26544844540580
