23
Coordinates from ORCA-job 7228optt
  Br  1.19604674308277      0.25528139788330      0.69420865032726
  C   2.98128132617900     -0.03521887327035     -0.21573726635154
  C   3.61081835931328     -1.26178591375479      0.00742375691047
  C   2.78510189804577     -2.52403692451961      0.04854468001878
  C   2.09895424512574     -2.72782504339340      1.40640608390857
  O   2.69953282135377     -2.85271896781857      2.43753970350085
  C   3.65245967808779     -3.73936483088216     -0.21859147194665
  O   3.33065638899861     -4.62372790919118     -0.96443085427668
  C   4.97637726096392     -3.71460493352244      0.53597347999068
  C   5.80069504515610     -2.50931328604401      0.04229607493569
  C   4.99920944754978     -1.23254200601182      0.06986820365456
  N   5.72165633069411     -0.11782926580078      0.10664155942367
  C   5.07775551049519      1.07705557490288      0.04505999916130
  N   5.57947460806827      2.23711797627541      0.18867829152848
  O   3.70618319581612      1.08869184865369     -0.26576628828816
  C   5.71281904148935     -4.96817245471958      0.40324228330762
  N   6.32142947197012     -5.93585995152966      0.32167330179838
  H   2.00905724611667     -2.50563656516583     -0.71757669133982
  H   0.99845696820253     -2.79415106811892      1.37926002006767
  H   4.73619826639370     -3.55744472628428      1.59191763105507
  H   6.14450137611278     -2.70387918665635     -0.97765987277204
  H   6.68573685337247     -2.38160558231449      0.66369389524883
  H   6.57059791741203      2.10857069128296      0.37233483013701
