28
Coordinates from ORCA-job 7235optt
  Br  2.86778056138426     -0.99979749419586     -2.09489534982892
  C   3.06146695844957      0.01964134987791     -0.46815680035009
  C   3.07490288732549      1.38396484874870     -0.45769114958925
  C   2.98196366260808      2.22556663784625     -1.71215672784205
  C   1.49682305003384      2.54547401618763     -1.87179559298273
  O   0.72752830402078      1.80756233540577     -2.42871542842773
  C   1.05684226156289      3.86651777969218     -1.25291857009672
  O   -0.31094579060600      3.96148943890875     -0.95220397855872
  C   -0.60367576203424      3.75802583152099      0.41848178746014
  C   -0.62690755781368      2.29599319222667      0.87144803875031
  C   -0.17427820719662      2.13344345074546      2.33037382552280
  N   1.26212086827793      2.34090513332254      2.50255033541418
  C   2.06569858320918      1.44820265670474      1.77853971297665
  N   1.85310794955946      0.17992251469019      1.91704398253655
  S   2.84511629352407     -0.85000180869309      1.01402473357052
  C   2.94268859603916      2.10790375224136      0.79190971926056
  O   3.21530453477923      3.34184249764050      0.91321641224100
  H   3.33052654389391      1.68297292895802     -2.58747464324238
  H   3.55637566977327      3.14093467501859     -1.56315877752529
  H   1.29346614346854      4.62714134723087     -2.00938287719673
  H   1.68770021099477      4.07298358097652     -0.38158082052873
  H   -1.58188428935478      4.21567974966708      0.58097084880990
  H   0.12316814983432      4.32068187151357      1.01867691780166
  H   -1.62987458569923      1.88424674127956      0.73828220011763
  H   0.03169444270252      1.69960470512378      0.23554811602561
  H   -0.40930092057712      1.12963836681317      2.68032211363836
  H   -0.69983094514223      2.84268778583378      2.97681020784138
  H   1.56442238698262      3.27877211471431      2.25693176420209
