26
Coordinates from ORCA-job 7238optt
  Br  1.26162026948756      0.31408437799152      0.45129846757876
  C   3.18713066996522      0.14783252883950      0.25342614428693
  C   3.69375824614597     -1.01293956547088     -0.30727418111121
  C   2.83347963053244     -2.01667070449852     -1.03083718429217
  C   2.29604820941557     -3.18674448285441     -0.23261483217000
  O   1.11473227833042     -3.43559725666070     -0.18140796520256
  C   3.27017128971168     -4.13119568566018      0.44764325545133
  O   4.58039484090870     -3.65356543589966      0.60408905938153
  C   5.35628021664335     -3.43651667891318     -0.54788743978754
  C   6.33540744637907     -4.53581569538615     -0.81283030385575
  C   5.84763395848364     -5.84913340294886     -1.34362899651527
  O   4.71235465723443     -6.17089881992208     -1.57258082660298
  N   5.81974533176569     -2.19669211344391     -0.75305763952618
  C   5.12789160358428     -1.11667238337491     -0.36643028671622
  C   5.83998573082544      0.06701808969088     -0.02681693812316
  C   5.18041718207050      1.15043340805084      0.48260197757001
  N   3.84685370767739      1.20277254784707      0.67572165668999
  H   3.43810076970520     -2.44541171230907     -1.83614676624483
  H   1.96629402791577     -1.52506012221198     -1.46712112759492
  H   3.24726994087997     -5.05970177455322     -0.13258142692334
  H   2.88338239649432     -4.33753651075529      1.44685830776035
  H   6.89472572836448     -4.79229707973458      0.10706314825914
  H   7.09245311379114     -4.17189754976650     -1.51512794033859
  H   6.66455329647917     -6.58263527314637     -1.52435742525664
  H   6.91711457370137      0.06340672821603     -0.12957473774658
  H   5.73020088350708      2.03843456687471      0.77857400102991
