28
Coordinates from ORCA-job 7242optt
  Br  2.10009039116479      0.81278685465416      3.54114646170286
  C   2.78893760533024      0.74784300622341      1.76740840690459
  C   3.58955833697995      1.76349205257046      1.23630119525078
  C   3.47205470716694      3.19492393147633      1.68646066187281
  C   2.43359477077014      3.83884750549493      0.75375941614894
  O   1.13321139468416      3.28199687231063      0.95340401352770
  C   0.55444768513418      2.27210858594897      0.26177270261484
  O   -0.42063804318931      1.76964427044300      0.74833032654765
  C   1.01189584929678      1.91499611942880     -1.14892412936523
  C   0.66646588464669      0.45353382264887     -1.55436294471382
  N   1.76868933784154     -0.52490181618492     -1.46364759463696
  C   2.67079036924019     -0.17509686502258     -0.43318286313129
  C   2.24516489027506     -0.18961097066003      0.86633262235181
  C   3.86921951131894      0.56715650468101     -0.75168909574800
  C   4.55232840891979      0.43214728894216     -1.98476440023215
  O   4.29411337420865     -0.41110598402950     -2.87712166722845
  N   4.18491105320868      1.61616602937904      0.06679083467797
  H   4.41770728002315      3.72160542820386      1.54611948288906
  H   3.14788238625739      3.29507329721504      2.72121218540621
  H   2.76176154479132      3.72944742191972     -0.27953549104010
  H   2.31824701383960      4.90034284883015      0.97951159553553
  H   2.06486026633268      2.12581752307814     -1.31573006072378
  H   0.44186799304414      2.59914011468668     -1.78683874208896
  H   0.31703799573375      0.44527640455036     -2.58829470986922
  H   -0.16732110607721      0.13533699243522     -0.92788713189423
  H   2.28842960112788     -0.58701381764463     -2.33417410719368
  H   1.35733507078487     -0.74819858365425      1.13846003135924
  H   5.36835642714498      1.16224516207494     -2.12685699892410
