21
Coordinates from ORCA-job 7247optt
  Br  1.27662705575181     -1.01439460498406     -1.88359981142798
  C   2.75217591105735     -0.43897684441593     -0.87248639881243
  C   2.89667047148082      0.86511093109977     -0.50990238905233
  C   2.06194547066909      2.04535749769877     -0.80323609116544
  C   1.77916119834898      2.70496783368559      0.32022664175024
  O   2.21589345212325      3.98141882269294      0.47539104833077
  C   3.63364799282660      3.99713741884687      0.37196769020815
  O   4.12108360508971      5.09759846563029      0.37070191163974
  C   4.40995367691878      2.73374986143559      0.33441574895694
  C   5.85118951460975      3.01820662352600      0.33003136220764
  O   6.70410395424108      2.25416557341884     -0.07641766390570
  C   4.04481773339860      1.34851818451052      0.19661908178928
  C   4.88466572687097      0.31540849669148      0.81725586439883
  O   5.59370296473624      0.43559545886885      1.77266287238538
  O   4.75576310250514     -0.96769114745277      0.30002485443750
  C   3.77624335655711     -1.40685313178488     -0.55093552266146
  N   3.80188043309506     -2.60065691668102     -0.98383821076300
  H   2.33814819404910      2.62592716179906     -1.67889894337172
  H   1.51711690138999      2.19966538468255      1.24586339569946
  H   6.12898955636841      4.02218910482708      0.68113527259104
  H   4.62421972791205     -3.07144417409555     -0.61098071323492
