26
Coordinates from ORCA-job 7248optt
  Br  1.43394114185338     -1.93694522051711     -1.07451498481932
  C   2.32890814952542     -0.33922130194939     -0.50523234448238
  C   2.42600017681069      0.70837902387938     -1.42226121801856
  C   1.26576998820469      1.25070309150019     -2.20474216651463
  C   0.18158275146786      1.81885126826051     -1.29050557256086
  O   0.80810211441325      2.81532713350291     -0.46006098996888
  C   0.47305374670979      2.88451715301175      0.82433116600615
  O   -0.46951419845325      2.34174722700983      1.32803608988439
  C   1.43518250795350      3.76576623672337      1.60392675870417
  C   2.62478763357364      4.25940322151091      0.80058943583665
  O   2.64979836140501      5.37862789963459      0.35593273125739
  C   3.81855372641620      3.32621122876290      0.66527020074819
  C   3.45047890398505      1.91166856769210      0.31018670523958
  O   3.32215298709718      1.74540381497403     -1.02163185487612
  N   3.27262953553500      1.02760867287967      1.19597250150953
  C   2.92006729970441     -0.30734695205374      0.77102578845438
  N   3.12768085649819     -1.31354061368997      1.57104086466239
  H   0.81278809369188      0.44835531052385     -2.79132450153943
  H   1.61309368448171      2.02332409391378     -2.89451882471850
  H   -0.22350293678553      1.03801122840473     -0.64749276505161
  H   -0.63199282328138      2.30304515053140     -1.83685956313177
  H   0.87704657336829      4.62837035999289      1.96726484860935
  H   1.76540336726639      3.16118337841509      2.45045417030360
  H   4.30987568191409      3.31074916353932      1.64111840425353
  H   4.48900858528917      3.75006823464406     -0.08048469044326
  H   3.49610409135525     -0.93926737109714      2.44247981065603
