26
Coordinates from ORCA-job 7250optt
  Br  1.03628128057334      0.04156787273315     -0.60905040919257
  C   2.90974677943054     -0.04017910339361     -0.36158386443648
  C   3.53194735564853     -1.20525928437553     -0.20182118984896
  C   3.00904967455137     -2.61392715589962     -0.17569186804263
  C   2.44093843100323     -2.89704594655214      1.21056669725094
  O   2.09434490431159     -4.29057524965354      1.37092062289756
  C   0.93046401890041     -4.68328966966969      0.87399651014225
  O   0.12073157956943     -3.99617994011503      0.32195079400108
  C   4.27723682507241     -3.42870469789305     -0.44560027586381
  C   5.43655591602561     -2.48961726002720     -0.12321355487333
  O   6.60097477352340     -2.84959086950058     -0.01248505915644
  N   4.93310308118326     -1.22525643431289     -0.02442051745975
  C   5.64782720979782     -0.00754801978255      0.27292587186634
  N   6.88498730431524      0.00564831427813      0.71247741470628
  C   4.92489157453639      1.21559036920938      0.07639889616763
  N   5.36907334775730      2.41617621428341      0.29933558827856
  N   3.58461396864658      1.14923494408291     -0.41320836045668
  H   2.22670057806566     -2.76814499764552     -0.91900387723433
  H   1.55946954147888     -2.28583174781943      1.39835351429967
  H   3.19822051665223     -2.70984653540924      1.97083219099228
  H   0.80222643620696     -5.75978240543151      1.04957193242392
  H   4.35922716754122     -3.72090841697386     -1.49554341164359
  H   4.34753087541280     -4.33351668284614      0.15691425577241
  H   7.25026589957844     -0.93965334426096      0.75107983430034
  H   6.32880670428578      2.31751027986450      0.62530862522216
  H   3.07378425593146      2.00312976711065     -0.24901036011285
