25
Coordinates from ORCA-job 7251optt
  Br  0.74079389312656     -0.14748557112034     -0.83261608612142
  C   3.07446638461107     -0.25718026486875      0.04914976738391
  C   3.73937964773022     -1.44353659697306      0.21917509977699
  C   2.97208789690196     -2.67912070125185      0.62356098586503
  C   3.29091580476157     -2.97396628935646      2.07638831207014
  O   3.81565071130491     -3.97109914319394      2.48916332937260
  C   3.18929974273815     -3.91938553980120     -0.22283687693146
  O   2.36139926689357     -4.78527837297029     -0.29837946169923
  C   4.49376033249564     -4.01388702610688     -0.99407429323750
  C   5.73716347136388     -3.80352027398397     -0.15616559145827
  O   6.55696088273679     -4.68109213461509      0.00761367412779
  N   5.92755558623494     -2.55424154703808      0.37227427580292
  C   5.16198577615769     -1.38961092889762      0.14582190388030
  C   5.82695924538710     -0.21826269401673     -0.09021150826714
  C   5.12169944242853      1.02296473389134     -0.27267199870124
  N   5.58874163817709      2.20380613671013     -0.49298553033441
  N   3.73416175379755      0.87734581490057     -0.19937990252856
  H   1.90853536313511     -2.42314414303342      0.57026567718722
  H   3.03054090035525     -2.13677328636576      2.75215434964108
  H   4.45902612342280     -3.23265476138303     -1.76087603433594
  H   4.56178539267410     -4.99333463293320     -1.45642403910599
  H   6.83973950523590     -2.43214442093546      0.78834711216881
  H   6.90646636066997     -0.20802623916781     -0.16514529005547
  H   6.60296183343076      2.17203955412817     -0.52577868235655
  H   3.19796304422877      1.72358832838280     -0.34736919214363
