25
Coordinates from ORCA-job 7253optt
  Br  2.53842346539757     -1.95529385864402     -0.20262370209904
  C   3.19311201155932     -0.20564221919227     -0.21643483483766
  C   2.59560429359565      0.97177425590333     -0.02836474957635
  C   1.22077640372159      1.41526469032958      0.30592167758124
  C   0.08787629351656      0.44030755637138      0.51985515217335
  O   -1.08923912694604      1.16837585484818      0.87615807324794
  C   -1.43737411589326      2.26051029713598      0.08032622246132
  O   -0.86211872262955      3.46654806078397      0.51584943026912
  C   -0.07900054642485      4.25343284585740     -0.37646845478520
  C   1.33770568727155      4.43057845103815      0.20269388451182
  O   1.52086251079227      5.08592673334061      1.19464566338820
  O   2.22491915630610      3.73241706176295     -0.47894390896752
  C   3.53182632675080      3.38912385094265      0.10869692684425
  N   3.59179438538554      1.95586577682108     -0.22738585514636
  C   4.77286656543942      1.32976930123618     -0.51949462649210
  O   5.87275302688874      1.75132542715005     -0.74307824455626
  O   4.50997878201332     -0.04712226451830     -0.51919688871799
  H   0.92604318484991      2.04076818123199     -0.52816216604458
  H   1.28243687260360      2.07324866006857      1.17864507143190
  H   0.26465760177336     -0.25227534226941      1.34148705291997
  H   -0.10408452510987     -0.14719362795914     -0.38552891117470
  H   -2.51942734331539      2.35467341676695      0.19121637529786
  H   -1.18823052607783      2.07635663914562     -0.97408536916013
  H   -0.54741333771668      5.23655328313725     -0.45370732230955
  H   -0.03274832375189      3.79570696871118     -1.36802049625953
