21
Coordinates from ORCA-job 7257optt
  Br  2.52391988511544     -1.91544618888733      1.62469478140562
  C   3.47688154869738     -0.69991675074370      0.54278711802215
  C   3.28629943166821      0.61848187226581      0.56100238843428
  C   2.42104102306992      1.44260818131076      1.41969537683039
  C   1.57828057745831      2.26429448996030      0.78306105502987
  O   0.94856583921102      1.73196548972231     -0.35754011396317
  C   -0.12423748257333      2.34876797074272     -0.83897745379930
  O   -0.69699690834635      3.27831563157730     -0.34905440153669
  C   1.97704769807984      3.67707829567402      0.71617119114276
  N   3.15614501912358      3.86793301605756      0.17524863219221
  C   4.01596413277621      2.92646790945469     -0.29894927067872
  C   4.09606488182914      1.50603625795254     -0.26813467559528
  C   5.11827596148513      0.90778113302375     -1.09165278880948
  O   5.90186737360331      1.50426905731204     -1.82669182166688
  C   5.22016686920749     -0.60941057119962     -1.08400061288812
  O   5.97180291414056     -1.24840400439155     -1.75754688140577
  O   4.37879358753367     -1.31989047122692     -0.24099109691447
  H   2.91170975660346      1.86764084681348      2.28866522455593
  H   -0.42775911320963      1.85919247615117     -1.77293859915567
  H   1.35354588779462      4.52727485192827      0.95410457227097
  H   4.82662111673195      3.36096050650238     -0.87195262347064
