29
Coordinates from ORCA-job 7260optt
  Br  2.37029988382432     -1.78721315241033     -1.85293636800646
  C   2.75893869195414     -0.21319164725531     -0.84287601331593
  C   2.49909650864556      1.02383647419605     -1.45971038053899
  C   1.18321471189745      1.41357799951409     -2.07293744362432
  C   0.09411446508453      1.50258951462126     -0.98666653410804
  O   -0.82349793280167      2.61105868771532     -1.14989990190832
  C   -0.58005556530460      3.82688960951162     -0.66617745524553
  O   -1.39299077577417      4.70296030843809     -0.82948474725431
  C   0.72726289929078      4.10758428794567      0.06675604257937
  N   0.83897427720648      3.35243419399841      1.30427388830619
  C   2.05087858283699      3.59390440772872      2.07636094918834
  C   3.33970579880745      3.28522883698604      1.30698085387930
  C   3.28354375977282      1.96425313645088      0.58586663275573
  O   2.98222263818668      2.14205320860387     -0.71409305370931
  N   3.48878525142001      0.86398740429392      1.16898041957471
  C   3.41671742398359     -0.35482895882917      0.39368047069266
  N   3.91432919382719     -1.44861899323231      0.88833610572107
  H   0.90040158026461      0.69271098303270     -2.83923864868620
  H   1.28343295703683      2.38935634612132     -2.55862452847520
  H   0.54888023577105      1.56669947694692     -0.00244288887389
  H   -0.54645962561091      0.62321654585414     -1.01244800719818
  H   1.55320144958440      3.81794910404150     -0.58539112238145
  H   0.75820381806766      5.19373639669572      0.21467623586151
  H   0.02610746053998      3.51064077677072      1.88631861449386
  H   2.00739968289691      2.93779627059256      2.94693755940535
  H   2.11652695797585      4.63327142328773      2.43611285731536
  H   4.16072586028874      3.26479438680643      2.02280404609572
  H   3.54344975023156      4.06780951950404      0.57421038197541
  H   4.25759006009570     -1.23048654793065      1.82063203548153
