25
Coordinates from ORCA-job 7263optt
  Br  3.98145268503353      1.46101015438414     -2.88236283368389
  C   4.84208827241327      1.00445401127204     -1.23538700713074
  C   5.77679569871278      1.78318322243792     -0.63128775238838
  C   6.53466715367696      1.18600715310505      0.41609724977099
  C   6.62572174484410     -0.21640844736943      0.45202637661535
  O   7.79352557339597     -0.79829398433751      0.94880735714775
  C   8.80434526531567     -0.84447713830957      0.00226722172305
  O   9.67135993386772      0.29453777650961      0.01714425477223
  C   9.29764227975965      1.53774504250780     -0.37105656612612
  N   9.80994621077592      2.50757825808229      0.25198635407091
  C   8.43539656315226      1.68976098423351     -1.62708823451922
  N   7.64531454355660      2.90419187868516     -1.63250204293715
  C   6.30902081243859      3.01196784640645     -1.28500527611572
  O   5.69522762052567      4.03054565234458     -1.52487788319400
  C   5.71886417951785     -1.04134102507650     -0.23554811070507
  O   5.74195248768996     -2.26422943239380     -0.42349497202477
  N   4.61510740612257     -0.28322123115580     -0.78240948020116
  H   7.20039587786264      1.78504717716754      1.02117112561917
  H   8.38583007901831     -1.00284312456929     -0.99467670332988
  H   9.47055772056098     -1.66151647024633      0.26966068228321
  H   9.48477559165384      3.37842496597708     -0.16238232705787
  H   7.78759231051207      0.82797191367990     -1.77385158275326
  H   9.12358803640844      1.72325106410636     -2.47742880361313
  H   7.98868855848306      3.70214025695638     -2.14378394097289
  H   3.98714339470145     -0.86048650439760     -1.32001710524939
