23
Coordinates from ORCA-job 7266optt
  Br  1.25993473599525      0.40839488337644      0.28421923947851
  C   3.03230183412932      0.00281955119683     -0.64087429925785
  C   3.65126803966559     -1.19731720162187     -0.27864951489056
  C   2.86714612249952     -2.42623812797805      0.01866558560243
  C   2.52833031028505     -2.61052500042949      1.50447204159928
  O   3.12349006761009     -2.10000915046113      2.40558510487523
  C   3.61813905187498     -3.67907153173079     -0.39359796471437
  O   3.05334961651340     -4.70590609364947     -0.67402221067093
  C   5.13171719649518     -3.61507346633272     -0.44722238061391
  N   5.72125433214330     -2.37471782659960      0.01230977726981
  C   6.99202569505528     -2.42130423616508      0.50462295401824
  O   7.64452782279274     -3.44456585493127      0.57446872633135
  C   5.03209922707857     -1.15032354487534     -0.15812906597232
  N   5.76915039371270     -0.05374868022832     -0.19859069975246
  C   5.12548047567850      1.12958781465986     -0.38588094008211
  N   5.61686049725894      2.29893174342125     -0.30304801833041
  O   3.78403878829482      1.10159560629624     -0.79634483968150
  H   1.91561564316070     -2.44508447657162     -0.51782169217717
  H   1.69252773990592     -3.31255192138317      1.69104587507579
  H   5.41586904591087     -3.81795585267722     -1.48573321637602
  H   5.53276236754525     -4.43320582889036      0.15091846970407
  H   7.34991256969652     -1.44207056814693      0.83270868491967
  H   6.59419842669734      2.19533976372185     -0.04510161635476
