24
Coordinates from ORCA-job 7274optt
  Br  1.24617845063691      0.22243990089560     -0.52925179381588
  C   3.13122940361961      0.09066415695810     -0.26052478066618
  C   3.74417419464935     -1.19152241158671     -0.12690085354334
  C   3.13814957513173     -2.39646159302504     -0.81861666126914
  C   2.51304147578017     -3.42526110623130      0.13363885110033
  O   3.53380141757427     -3.98461380762666      0.94713460868020
  C   3.89291032135361     -3.25957826388727      2.03773739861596
  O   3.15905681507728     -3.03498552974511      2.95699419194379
  C   5.35580641644273     -2.86853111325766      1.97395083749685
  O   5.71527687405107     -2.38780267269529      0.70166435963714
  C   5.07066987911718     -1.19395961923488      0.38407947466581
  C   5.74283973367497     -0.03960925421590      0.60418220642842
  N   5.15624859433079      1.17032403563372      0.27248156829153
  C   3.79333549804827      1.32300191666995     -0.04061538995783
  O   3.33471756012602      2.46715739340074     -0.10732142269047
  C   4.08505935957152     -3.06225392484334     -1.72812139709932
  N   4.79988965256220     -3.57003420888142     -2.46907230171932
  H   2.32610196414124     -2.03053109448775     -1.45216021847913
  H   2.06248791263001     -4.25193815619576     -0.41561126958464
  H   1.76137789618369     -2.92882579614442      0.75016898277925
  H   5.96277877582203     -3.75704243366140      2.16280238909552
  H   5.54009388899631     -2.12089907513834      2.75037561007850
  H   6.72957491951271     -0.02400208801625      1.04280086754683
  H   5.63319942096624      2.03826474531641      0.44618474246509
