25
Coordinates from ORCA-job 7281optt
  Br  3.78911285227528     -0.35638066098089     -3.66706193899110
  C   3.53769394965162     -0.12283771596256     -1.74875465499993
  C   2.45621399303481      0.61443312403023     -1.34239026030136
  C   1.52412642350702      1.44190041559777     -2.18479977869277
  C   0.65723982261135      2.35478989607766     -1.32430056744015
  O   1.41037443045553      3.35992119650989     -0.64541830197266
  C   1.33600181259211      3.44455714457464      0.73379944678433
  O   2.51098338116226      2.92751744327962      1.35246252518528
  C   2.36083923159931      2.00461568632874      2.33295570767960
  O   1.69728236578049      2.20120725540916      3.32385335645782
  N   3.11507845640067      0.88658111767651      2.10807712783299
  C   3.24751614019892      0.39881964889220      0.78546185116901
  N   2.23094510389099      0.70624556782397      0.00932445173293
  C   4.37374532720346     -0.29186529608269      0.35103993589247
  N   4.44587126866384     -0.69973429176588     -0.98445730177571
  C   5.41609662878055     -0.61755080871436      1.24830273796296
  C   6.27949054704223     -0.90091461495939      2.04536831799177
  H   0.85170433375125      0.81835504873568     -2.78669315664052
  H   2.09359798043368      2.04701466659090     -2.89535084306073
  H   0.10157369304208      1.75964908611970     -0.59861603208257
  H   -0.05430385335750      2.87730684969800     -1.97130092991012
  H   0.46547138763033      2.91770293656028      1.13241717283609
  H   1.29096624091457      4.50383965914199      0.98839320980448
  H   3.24471199903368      0.26537852301458      2.89067493682717
  H   7.04966648370140     -1.14055187759576      2.73601298771069
