22
Coordinates from ORCA-job 7289optt
  Br  1.42961201127190     -5.61404251381347      2.32834108996765
  C   2.90734031006174     -5.28958663515755      1.13920174626264
  C   2.87774901447412     -4.16738408918451      0.36058661208899
  C   1.90199588887366     -3.03627695730523      0.17926823837720
  C   2.72632422711070     -2.16377748606637     -0.74848465370517
  O   2.11694578426602     -1.25306784427038     -1.61059246982606
  C   1.21089693902610     -0.40808665727024     -1.14795293991202
  O   0.82015133103209     -0.30831008472877     -0.01430338137825
  N   3.83102526496990     -2.76285873049926     -1.23988518352728
  C   3.95993294495857     -3.89908081458598     -0.54510978162288
  C   4.97907337994422     -4.85551813906222     -0.52951890468943
  N   6.18199930455589     -5.00198099401050     -1.21818444492409
  C   6.82749801940636     -6.15261559886992     -0.83366446257008
  O   7.89527273729861     -6.58539259275500     -1.23528632911535
  N   5.99788639082660     -6.71864633906580      0.11687510694928
  C   4.85880362621112     -5.94265735148211      0.31730208404376
  N   3.86912563834511     -6.21564880369738      1.16293194267508
  H   1.60414709381764     -2.54427618686629      1.10601860377948
  H   0.97129652677542     -3.36731935549699     -0.31160098416045
  H   0.85895340230165      0.22314317699931     -1.97439726915164
  H   6.54998213944337     -4.37099198476522     -1.90661106136709
  H   6.20998802502912     -7.58362401804601      0.58006644180573
