25
Coordinates from ORCA-job 7297optt
  Br  0.98969531741963      0.93030085461921      2.96390124446013
  C   2.53332756004922      0.78145484920352      1.72348220223252
  C   3.50943915508542      1.75090872801131      1.78477549009569
  C   3.12311074636797      3.19850051248053      1.64964632732729
  C   2.97955045685339      3.55660839376643      0.15676736483902
  O   2.29772373852692      2.52828891776474     -0.59230215420370
  C   0.98833534384272      2.43210565409739     -0.41898849943245
  O   0.30021576984067      3.26929737234512      0.11043563074160
  N   0.42220273790619      1.29003308754941     -0.96918269934665
  C   0.86037958585493      0.04211462155385     -1.43618138995219
  O   0.00149359335197     -0.74144763294330     -1.76857267944674
  C   2.32909821746688     -0.29512343137306     -1.57876836500835
  C   3.11372721696999     -0.09612786674651     -0.31003563192776
  N   2.38341390151442     -0.15514915312067      0.82939917393220
  C   4.43952466305380      0.42172953276223     -0.42133022530147
  N   5.24757809746543      0.38476798134038     -1.43101209775048
  S   5.02659635060915      1.23580976154706      1.06186461450841
  H   3.86854118620479      3.88302434172697      2.06523798402359
  H   2.17657645014340      3.37637273195783      2.16105764197054
  H   3.95978835764608      3.59388522481940     -0.31366864214153
  H   2.45449591022712      4.50262024325008      0.02159111007755
  H   -0.58152395457073      1.29456118098727     -0.85021436214334
  H   2.34404712748921     -1.31566109450435     -1.96847953386340
  H   2.74616709227933      0.36506985374283     -2.34707134043954
  H   4.85849537840206     -0.20994466483769     -2.16335116325093
