22
Coordinates from ORCA-job 7310optt
  Br  1.16256618698665     -0.11508739714212     -0.20402821406852
  C   3.01947306203684     -0.06172578974482      0.38841201660442
  C   3.78852061231324     -1.23476294957158      0.29446463396761
  C   3.40743957118873     -2.60182108095345      0.47100111760912
  C   4.47787770262145     -3.42774514753853      0.40567016197038
  O   4.60086364943415     -4.79959651501114      0.49646407441594
  C   3.56103269094262     -5.59720880192929      0.73781191618216
  O   2.42126509237334     -5.27503668130223      0.89689606784553
  S   5.99690312381872     -2.60413238601628      0.13124144962113
  C   5.16875550843954     -1.07921295896422      0.07644362283539
  C   5.73177178616627      0.16085467667384     -0.15233867750211
  O   7.08558706692297      0.27593922273399     -0.47300833607515
  C   7.89768755384676      0.73888927538818      0.50325554402527
  N   9.12988546823298      0.94312557575362      0.35634666695902
  C   4.91676852227517      1.32808763852587     -0.21824610887879
  N   5.24865282015336      2.53003581222650     -0.50807622668505
  O   3.58203482116412      1.15160971112248      0.10217922297095
  H   2.39430581259628     -2.93045558766700      0.62944942518915
  H   3.92550948030933     -6.63124736453228      0.76837506539434
  H   7.38871139929617      0.92503828926871      1.44881630805827
  H   9.40601137651092      0.71208328882920     -0.59919714026615
  H   6.23637669237024      2.55336916985056     -0.74493259017293
