21
Coordinates from ORCA-job 7316optt
  Br  1.06261321064193      0.06538371342566      0.27809931320423
  C   2.93838015028674     -0.04226058277635      0.05772720497687
  C   3.59715137630665     -1.20217728099494     -0.05925051449781
  C   3.08245072477126     -2.61820346074945     -0.10941018714820
  C   2.33479824108078     -3.01479090304996     -1.38196473681138
  O   1.86995202068641     -2.24952156177474     -2.17370041233793
  N   4.33760345797798     -3.35509771605560     -0.07742296852935
  C   4.67773756639655     -4.66322002453677     -0.03185757777148
  O   3.97064487846415     -5.64428386434845      0.02480271333964
  O   6.03857086372767     -4.69036415007433     -0.06309402215733
  C   6.52552930647649     -3.37473964811699     -0.12898580792013
  C   5.47195945434109     -2.52082357075573     -0.13695289165699
  C   5.03128108718733     -1.17339401272080     -0.13567879322857
  C   5.69707528979672      0.06225350743559     -0.11712318347722
  C   4.98410392176567      1.26853246172683     -0.01991537758059
  O   5.38328838900589      2.41121368872998      0.01094085928947
  O   3.53647110021634      1.15894369368209      0.07011207875382
  H   2.44774430554434     -2.88450584210529      0.74417266032093
  H   2.27018334851571     -4.11121297523904     -1.51940215625075
  H   7.58983879931180     -3.25276226254877     -0.15303575586128
  H   6.77162250749842      0.14603079084709     -0.16806044465593
