21
Coordinates from ORCA-job 7318optt
  Br  0.98862736647572     -0.11401804068820     -0.02074119159058
  C   2.89270937531288      0.02664239352311     -0.02311434364088
  C   3.66530603378700     -1.07543192411341     -0.02323997500061
  C   3.14086712125026     -2.42612611889255     -0.02228092844429
  C   3.99299311798405     -3.45053557296546     -0.02212543886130
  O   5.32300731442749     -3.33730745974370     -0.02269929712522
  N   5.91373382398760     -2.06568051244837     -0.02401453248242
  C   5.14301547063887     -1.01189437871993     -0.02435409943213
  C   5.80805576979697      0.25988826787848     -0.02580008291930
  C   7.17350593289020      0.55570845840074     -0.02704766615639
  C   8.28356752314483     -0.30826238003437     -0.02682833942931
  C   9.28340147310261     -0.98170357327725     -0.02663150734108
  C   7.32907016403524      2.02495425138216     -0.02830978002181
  O   8.38618372403072      2.66099354580489     -0.02919637659447
  C   5.97202490567776      2.57406906105727     -0.02795622883948
  C   5.10189052475565      1.52821432044213     -0.02640228606649
  S   3.37493667593770      1.69081083168036     -0.02483385345030
  H   2.07984147198091     -2.61654694302456     -0.02182402268188
  H   3.68820163156850     -4.48912766572033     -0.02154072931145
  H   10.14841545777807     -1.59705721423677     -0.02644907920514
  H   5.73864512143689      3.62741065369575     -0.02861024140545
