20
Coordinates from ORCA-job 7321optt
  Br  1.00596857296563     -0.30319210208489      0.05703608723481
  C   2.89190316735440     -0.18777148832626      0.05996030192334
  C   3.53913388539425      1.05693183897742      0.06019977306169
  C   3.02184452582929      2.46091570355045      0.05931610215197
  C   4.29771881316403      3.30622468059509      0.06005724550445
  O   4.38033557668297      4.51411829928356      0.05944880523537
  N   5.34945635011273      2.43122044690677      0.06168349710976
  C   4.92901803134009      1.09353653830598      0.06178551520979
  C   5.72615824347621     -0.03688868439439      0.06335677724600
  Br  7.60881764400897      0.12838849123952      0.06612309085803
  C   5.08400337700732     -1.29098482692158      0.06305219238171
  C   3.66816657887687     -1.32198544552432      0.06146895130286
  O   3.23796408756151     -2.59316494560990      0.06146139704281
  N   4.34562713418985     -3.47677463101796      0.06288468583783
  C   5.43309595014553     -2.65165525063748      0.06380192848352
  C   6.72735906209196     -3.22268964262789      0.06480814523119
  N   7.77638342151312     -3.70201784696992      0.06647032220545
  H   2.42358345190976      2.71909313148432      0.93737043562418
  H   2.42469857128173      2.71861052648489     -0.81961319571035
  H   6.31376355509374      2.72208520728658      0.06232794206559
