23
Coordinates from ORCA-job 7324optt
  Br  1.08916272120947      0.24633386504984     -0.01850771845384
  C   2.97559419713738      0.06538993912246     -0.12468002978255
  C   3.54592723578518     -1.15810481302546     -0.07979174176604
  C   2.84251724171045     -2.41468419508192      0.03821875160846
  C   3.56224648411710     -3.53729158240880      0.05294687000604
  O   4.89112944939732     -3.59676847872309     -0.03397205080897
  N   5.66137688016051     -2.42024904771951     -0.13433282087562
  C   5.00203250336270     -1.27526974417888     -0.15221349417736
  C   5.71471739509691     -0.03420963833997     -0.25271036587184
  N   5.11110424608457      1.15221328805486     -0.30391897446860
  C   3.75350693653363      1.29759053633656     -0.25670166048042
  N   3.16074241648059      2.44832559687542     -0.32195336927939
  C   7.20121150694971      0.01974225778549     -0.30721697193396
  O   7.96317039206197     -0.91999928600225     -0.24848562798031
  N   7.67682766602763      1.32820868098524     -0.43496324186270
  C   9.00678464823317      1.63343866005032     -0.51835884337395
  N   9.52953881643005      2.78912453204548     -0.63002449493588
  H   1.76782310122042     -2.45228512279559      0.11236053292579
  H   3.13341108689505     -4.52812423935687      0.13849803029730
  H   3.88734554826795      3.15697151199460     -0.41022521783080
  H   6.95395639108394      2.03855524669118     -0.45869565658364
  H   9.64018529292536      0.75101580241884     -0.48352773155749
  H   8.80768784282886      3.51107623022206     -0.64874417281422
