21
Coordinates from ORCA-job 7325optt
  Br  1.31944486786775      0.63409137723927     -0.17475732235143
  C   3.18755318127620      0.33504486374629     -0.31738932972038
  C   3.73580190693600     -0.92754466907451     -0.11782096486723
  C   2.99678121294957     -2.13151653291468      0.18215887289300
  C   3.68515338451389     -3.25743803991727      0.37284765550335
  O   5.02348906608596     -3.35773560454836      0.30908473770800
  N   5.80048212178241     -2.21582736042247     -0.02098644005102
  C   5.14033466228135     -1.08516825327355     -0.20747992846282
  C   5.99259247355647      0.09729930512392     -0.54814436385580
  N   7.27021978098096      0.03251148404568     -0.68997321142648
  N   5.34796047618738      1.30581622002060     -0.71013362104258
  C   4.06705584787001      1.38020598710828     -0.59538790762774
  O   3.51853985221662      2.66625705177229     -0.82138946337132
  C   3.32712469541406      3.42564554614645      0.23776465740024
  O   3.52658093093951      3.15641919422622      1.38847633748427
  C   2.76925352129238      4.80924365215576     -0.10925705283010
  O   2.40493707354553      5.15749601868671     -1.18975154900806
  H   1.91979756085877     -2.13374783770707      0.25107711832789
  H   3.23461051256574     -4.21506934889392      0.60041225761896
  H   7.56018607809200     -0.92997299564324     -0.53054280312999
  H   2.72410079278740      5.45898994212362      0.78319232080926
