23
Coordinates from ORCA-job 7331optt
  Br  1.19810450847463      0.49684899717261     -0.02190005584651
  C   3.06479300410221      0.15043457685185     -0.06444020435275
  C   3.62513537150008     -1.06334540222523      0.11704195797867
  C   2.81754543533125     -2.28686357232794      0.45638415587777
  C   2.87687489125887     -3.39281707097667     -0.57536063929055
  O   1.91250657642531     -3.75747400250889     -1.21449834408173
  N   4.08362774391717     -4.02681549178547     -0.71755713958850
  C   5.29162876602888     -3.68100254693076     -0.12728307710048
  N   6.20156072623239     -4.60093486209703      0.01786430765791
  O   7.31463740452219     -3.95861501884168      0.49464628849176
  C   7.02859905196946     -2.64254611425258      0.64124910384597
  C   5.73985941948392     -2.36980497129769      0.25653021929809
  C   5.06063972977261     -1.11773550161823      0.12606801046596
  C   5.77195958522734      0.09679456493384      0.08168409222597
  C   5.13181561971622      1.34119139509911     -0.11330520153073
  N   5.59867801171638      2.53498837942275     -0.20573390865775
  O   3.73556315439728      1.30071255455507     -0.27591939190897
  H   1.76698435515309     -2.04155978199748      0.57111544591272
  H   3.18662810650937     -2.69632911516167      1.40288929046432
  H   4.08318040614544     -4.83841094013258     -1.31785383153112
  H   7.82670320786439     -2.01970335910954      1.00548795084136
  H   6.85309605111050      0.10387666247525      0.10894811710998
  H   6.60787887314095      2.49011062075296     -0.09805714628139
