24
Coordinates from ORCA-job 7337optt
  Br  1.10005507866184     -0.11327653449182     -1.29840763389887
  C   2.87139032247773     -0.14606117801305      0.16842736706871
  C   3.56384896959749      1.04395448076747      0.30623043835177
  C   2.76919718017644      2.30457854602219      0.54494334654012
  C   2.87527450100732      3.45198658002860     -0.44942149868092
  O   1.89134035898678      4.11311631612452     -0.72665938601477
  N   4.07900053846502      3.79738472143613     -0.99527628856429
  C   5.42958022920166      3.28933307427496     -0.82364465084538
  C   5.63007816157948      2.44018155533770      0.42424785715946
  C   4.98122287560739      1.09517259882542      0.27076294188028
  C   5.70786518128804     -0.05148942068729      0.04535153551172
  Br  7.59539530582540     -0.11268934403044     -0.09258785866018
  C   5.02031868526611     -1.27153518781587     -0.08118370404876
  N   5.41279092901788     -2.52956855856539     -0.23327253129966
  N   4.28529612783337     -3.25165724909909     -0.23137875971317
  N   3.23361423990525     -2.53670008025511     -0.08912582508903
  N   3.65843145391073     -1.25572790506565      0.00520484655721
  H   3.01229519040866      2.72950826664978      1.52645246323858
  H   1.71202624101183      2.05141164195171      0.56137220463333
  H   3.97243526595442      4.55627867472681     -1.65178926167382
  H   6.09421439368118      4.15560097448933     -0.76938841231753
  H   5.73087818200771      2.69813002903607     -1.69481713540714
  H   5.21677159728091      2.96217763595345      1.29036459549037
  H   6.69967899084720      2.32789036239953      0.58759534978197
