30
Coordinates from ORCA-job 7342optt
  Br  3.34921783529123     -0.93518633375618     -2.14177197423229
  C   2.90357914880917      0.14553294319500     -0.64608940266980
  C   2.58755359608552      1.45367389990296     -0.70161410784343
  C   2.46283794755715      2.26407823485689     -1.96938548876515
  C   1.00605879756630      2.64826267080666     -2.24175687013406
  O   0.43629067680769      2.38800361292212     -3.28867607534789
  N   0.41438720481138      3.28901196359355     -1.20370265649257
  C   -1.02851458336948      3.33715570626474     -1.07091286854817
  C   -1.42060196229337      3.48379242998227      0.40000562638710
  C   -0.77810739205232      2.42192483218043      1.31332012637124
  C   0.37732752799058      2.98238419241755      2.15760014596681
  O   1.30510240898452      1.99814247538598      2.56629972949773
  C   1.96966237516847      1.37853226102081      1.53426530937710
  N   2.25598751594528      2.11941849451918      0.45192036649096
  C   2.25977145789807      0.00460324528405      1.68784493074147
  N   1.93892447861680     -0.72813212872677      2.71644719911696
  N   3.02050428929688     -0.52341309379309      0.58766372322480
  H   2.82903073938148      1.73149211834652     -2.84183874697124
  H   3.04159361306916      3.18379428981254     -1.84144337514307
  H   0.96618657768719      3.19448817774473     -0.34356349057737
  H   -1.45175871248000      2.41474854572904     -1.48215849749600
  H   -1.44130046440163      4.16247351915358     -1.65766199354823
  H   -2.50981759595529      3.43649747700083      0.45828764415910
  H   -1.13797563536031      4.48380314151535      0.74717096258409
  H   -1.52020471818656      1.98361867448047      1.98154837432013
  H   -0.38716236472875      1.60182315293844      0.70467880014299
  H   -0.00946506946403      3.41270440999696      3.08357104098874
  H   0.89232235331398      3.78010057356806      1.61366400848384
  H   2.28869515395062     -1.67577832868236      2.58746929497334
  H   2.91987480006026     -1.52555115766034      0.51281826494283
