23
Coordinates from ORCA-job 7343optt
  Br  1.03697150305809     -0.42619291834233      0.32002128819545
  C   2.87820895419953     -0.09205351590826      0.15053551039843
  C   3.50928840186101      1.13556389067248      0.11341664262785
  C   3.14579171890584      2.52059442762117      0.12320506056560
  C   1.88979326428888      3.19973397042837      0.19754045043553
  O   0.76169362139042      2.73156238113806      0.28128098767712
  N   4.28040181128670      3.30519441924433      0.04127874124877
  C   5.32269742649313      2.49899866995692     -0.01722672083056
  C   6.71142848159634      3.07543974478583     -0.04684181268922
  C   7.57991315778461      2.52071694535257     -1.08916710801483
  N   8.28544154787670      2.09380708314341     -1.88672935643559
  C   4.95427302595126      1.14038628730242      0.02251948834655
  C   5.69001855473139     -0.06443529311750     -0.03805722813542
  C   5.02901432100227     -1.24971038617103      0.02698778991978
  N   3.63537717684985     -1.26933782126539      0.20055729272118
  C   5.66785654832586     -2.51405049480896     -0.04444943412308
  C   6.17419350898638     -3.60478878379404     -0.10845086862027
  H   2.02989004947116      4.29922047496991      0.17246204128613
  H   7.22647867862824      2.92735947978780      0.90771339467306
  H   6.62168703388645      4.14970234828613     -0.21014829816636
  H   6.76637658828814     -0.07397341327872     -0.15110151715403
  H   3.15951958388274     -2.12283285530504     -0.04477911076055
  H   6.63668504125487     -4.55890464069819     -0.17456723316554
