25
Coordinates from ORCA-job 7345optt
  Br  1.15449562717543     -0.73015374766089     -0.91967025603724
  C   3.05307938748121     -0.61021195644462     -0.68788050899356
  C   3.69941991367901     -1.42869457253629      0.15287401892822
  C   3.06438589438550     -2.54516993565505      0.93185576394727
  C   3.11636363599581     -3.93410498634200      0.32527215307482
  O   2.19205487010834     -4.69831380358387      0.47087702372392
  N   4.28070369131475     -4.33159744888247     -0.35555782191703
  C   5.43335352280612     -3.47264977947605     -0.67466898350209
  C   5.84725542862547     -2.48051963171305      0.40408669771854
  N   5.06677826607656     -1.26542282579964      0.35027730783518
  C   5.72676758976103      0.00490396885379      0.43883941694975
  N   6.76331708278904      0.16869068786773      1.22746955953009
  C   5.25153476984685      1.07204955792589     -0.37884894574362
  O   5.63188234021320      2.23821880617893     -0.42216773091811
  S   3.87181068656023      0.64013652753542     -1.56783011903844
  C   4.32820247587662     -5.63322679291705     -0.82881944955294
  O   5.25939988012665     -6.09205352283869     -1.44252944982966
  H   2.00885238007321     -2.35554503178149      1.10414167925832
  H   3.55024524067789     -2.61610599092643      1.91031224426299
  H   5.23179705490410     -2.92540534747729     -1.59844314041959
  H   6.24989463516371     -4.16564609792195     -0.86486686702881
  H   6.88496405389654     -2.20259821802036      0.22085029981278
  H   5.81583523325704     -2.97333581840291      1.38754149065852
  H   6.87971117528731     -0.65088727576612      1.81971995522186
  H   3.43089516391827     -6.20435676421546     -0.57783433794118
