29
Coordinates from ORCA-job 7347optt
  Br  1.41958606149681     -1.11696548087631     -1.26690029018092
  C   2.78324593520034     -0.22391286425923     -0.15112857384874
  C   3.85943434625871     -1.00504003092051      0.31664068136899
  C   3.62262889823689     -2.41645168946229      0.75984431516048
  C   3.79191027767060     -3.56390052211706     -0.24536177620925
  O   3.43797892090731     -4.67977405902683      0.10571866194415
  N   4.37524010084896     -3.42431915977658     -1.47454318407538
  C   4.83054625128544     -2.29121111551090     -2.26966541497868
  C   6.36552822917026     -2.11197860800530     -2.22361659346518
  N   6.88560587619080     -0.79177928155816     -2.58110421061329
  C   6.93505656285719      0.16499775808821     -1.45033892949738
  C   5.62496945396491      0.32989527452504     -0.75388849730500
  N   4.65074910965104      1.04481888099779     -1.48681536241207
  S   3.20835136699026      1.35557827250316     -0.65476459878760
  O   3.53634141896472      2.16435314467376      0.49167905822497
  O   2.32307592176835      1.91727017661567     -1.63841112759134
  C   5.20109734389336     -0.60575879204953      0.15758237488640
  H   2.61938744847177     -2.55587367305417      1.16254404679337
  H   4.32169180539495     -2.67780138284689      1.56123071897864
  H   4.40313610898165     -4.32288274292218     -1.93404116749727
  H   4.31327047868884     -1.38751481738793     -1.97606387760407
  H   4.52768023611649     -2.48861344084315     -3.30220400078788
  H   6.82133069846301     -2.85414061755073     -2.88735627025967
  H   6.70783047835778     -2.34541089931857     -1.21509422288106
  H   6.31475521170590     -0.39133190769362     -3.31870761526627
  H   7.30902576259357      1.11144499634388     -1.85404533450707
  H   7.67694402732268     -0.20694029078534     -0.74037066805690
  H   4.98872956570736      1.87307733111647     -1.96897638897216
  H   5.96787210283971     -1.20583445889860      0.63715824744027
