26
Coordinates from ORCA-job 7352optt
  Br  0.91531752223082      0.08436431144856      0.18647529783010
  C   2.83603083607323      0.05882788793910      0.04655587056365
  C   3.54511933177784     -1.11059677712771      0.22865465897133
  C   2.92285557421707     -2.41536237591053      0.64457564602593
  C   3.13054320014748     -3.54626771615677     -0.34009558290805
  O   2.20716183482037     -4.10477348610750     -0.92550729088559
  N   4.41965109463027     -3.92596738026438     -0.48817843272738
  C   5.58170855954394     -3.35752119277470      0.08612179256419
  N   5.84654064198147     -2.07042165444689      0.23605307928338
  C   4.98007235188509     -1.05028116814099      0.13317401176217
  C   5.51268271527610      0.26333483142918      0.02138874373772
  N   4.80295102575253      1.36067597989481     -0.14114859856501
  C   3.46986472573479      1.28692584783676     -0.18066345719240
  N   2.77066861014993      2.46785528314529     -0.49833667221878
  C   3.49128691644781      3.69251453110489     -0.36420060182255
  C   2.59711840985638      4.88830703673595     -0.37717939496908
  O   1.39609692685948      4.86183991585945     -0.35583815996578
  H   1.85502538752719     -2.32062442174026      0.80874445608165
  H   3.40690105819059     -2.72534704523135      1.57862654538669
  H   4.53608788309597     -4.73943219814542     -1.07886873297275
  H   6.40007917736085     -4.06006127090218      0.16541306596782
  H   6.59237860108441      0.36871155401483      0.05716774551489
  H   1.82440349088501      2.51683617913788     -0.14733859492084
  H   4.23537197948609      3.81364265631690     -1.16056357819906
  H   4.08492376259470      3.75834526245171      0.56601691998992
  H   3.13615838239049      5.85747540963338     -0.38404873633217
