28
Coordinates from ORCA-job 7358optt
  Br  1.01327963426838     -2.73139129882717     -0.82602703747125
  C   2.51165012708384     -0.74024002139187     -0.12452331602381
  C   2.15213358307920      0.56731636677876      0.02692570326701
  C   0.68480884072358      0.90557769349439      0.20251501660250
  C   0.44236037824583      1.74559783556151      1.43532772966390
  O   0.72754058602644      1.40095094574633      2.55557459175651
  N   -0.06685796179233      3.04215643627568      1.25183537580825
  C   -0.18853491399119      3.71913061369033      0.00634415684196
  O   -1.12794540010619      3.55846041781364     -0.71677184238221
  C   1.04147016198692      4.52689003133463     -0.38849476300862
  N   2.00699197388704      3.52172541020077     -0.77823974584662
  C   2.95468005869584      2.99896972146560      0.19150293911931
  C   3.21817417979553      1.52093011554457     -0.01048758850003
  C   4.51084235188081      1.12538831784286     -0.20265618910103
  C   4.88012564389258     -0.25995117599369     -0.36883052450322
  N   6.05096226404386     -0.77444823968168     -0.54957421969263
  N   3.78375613633174     -1.11212063048517     -0.31767249210976
  H   0.16365076068921     -0.04316360554334      0.34216244717816
  H   0.27387816526392      1.39130938845053     -0.68179516422113
  H   0.16626939073317      3.62916674249414      2.04315110439555
  H   0.78308384521452      5.15293508396534     -1.24052661700309
  H   1.39213444044189      5.16508163520207      0.43302184535914
  H   2.39100564015660      3.64734036910971     -1.69949410274017
  H   2.53871646883630      3.15058911635210      1.19014927362658
  H   3.90893039699859      3.53999946993701      0.16734106977734
  H   5.30953235125012      1.85710902400483     -0.23047931998234
  H   6.74718511872357     -0.03543520137010     -0.56340017926703
  H   3.97217577764017     -2.09787456197187     -0.45587815154331
