22
Coordinates from ORCA-job 7361optt
  Br  3.53013220292229     -0.40980192091224      2.64628192437045
  C   3.30465164215889      0.40316492411016      0.94555599722968
  C   3.06271278438372      1.71153939142546      0.73981444247104
  C   2.78203924130489      2.72862482799425      1.82178001935192
  C   1.26619637543596      2.93092754228360      1.86447724674603
  O   0.57471365388590      2.65577184357402      2.80130194218469
  N   0.75082903576639      3.41660632786232      0.63395049123824
  C   -0.08359423073118      2.58442055591760     -0.10927780267468
  O   -0.82715449059387      1.75058169078921      0.31048840066251
  O   0.08650608440359      2.86449683800562     -1.43492453536934
  C   0.38199025067112      1.75621110431603     -2.29141648859873
  O   1.74914659034376      1.64028654183596     -2.52840109612964
  C   2.45601997131475      1.21793842074579     -1.41284753501762
  N   2.82080072320958      2.15801083684267     -0.53589688114931
  C   2.64831639362651     -0.17064796590192     -1.25497505842551
  O   2.32740372351339     -1.09926300278200     -1.96758071779030
  O   3.39632878876420     -0.48493657793970     -0.06909654608711
  H   3.26882887229093      3.66858390730448      1.54645465439454
  H   3.11147985678507      2.41300018132806      2.80685547902334
  H   1.50742526996108      3.68954351576858      0.01041478229491
  H   -0.08390842861830      1.97845670054886     -3.24758347015579
  H   -0.02386431079873      0.84648431688314     -1.84337524856933
