22
Coordinates from ORCA-job 7364optt
  Br  0.97658633683938     -0.12249831098774      0.66495380545265
  C   2.85551485348899     -0.18371455922469      0.43125574107016
  C   3.54817234289537      0.93516675529563     -0.06443270101259
  C   3.20836348851933      2.27706278943576     -0.35753575045193
  C   2.07695267784113      3.15309106894224     -0.02083801166318
  O   1.28228637991724      3.01374148632624      0.87433146191566
  N   4.18497216118346      2.93221306925885     -0.99994472016743
  O   5.23924764205155      2.04412329681376     -1.11372503015233
  C   4.88895123470926      0.85313504645586     -0.54439899715042
  C   5.73475345011395     -0.20256509877350     -0.47419590484143
  N   7.04266285742180     -0.18422735523312     -0.99397753043376
  C   7.92765065948043      0.83035447988969     -0.41823746871098
  C   9.29175331103342      0.66836971176948     -0.91761240924486
  C   10.40797991502860      0.51392681756056     -1.32428599079166
  S   5.21565482658372     -1.66115023227724      0.32726006607640
  C   3.41840648267438     -1.45416303440164      0.66925948647744
  O   2.89271322868005     -2.46798658875794      1.09245812444114
  H   2.05713925656587      4.05719082046412     -0.65836172885641
  H   7.46921006166100     -1.10094413642096     -0.96422876973901
  H   7.94039154253905      0.78715527139734      0.67880840406016
  H   7.54912207573346      1.81353792730216     -0.70112371425011
  H   11.39751521503844      0.38218077516508     -1.68942836202752
