22
Coordinates from ORCA-job 7369optt
  Br  1.08904524615325     -0.27813382159255     -0.42037659800960
  C   2.95611055522711     -0.02342827539978     -0.22153331077388
  C   3.54314798249136      1.25158337376835     -0.41691013775317
  C   2.79035916082768      2.50201047364678     -0.76929214557680
  C   2.79341612798128      3.42143521500112      0.42348006374671
  O   1.86754143447682      3.69953656931452      1.11896623893298
  O   4.02415814888460      3.95961813051642      0.76151751780356
  C   5.13542841545450      3.77153292433360      0.01321719080587
  C   6.06523780970443      4.71930321029802     -0.34923751300726
  C   7.06935080721773      3.96563279175153     -0.97689643290839
  N   6.77830273970691      2.67592147454213     -1.01230749844877
  N   5.58612608909398      2.56361876275297     -0.39645684002000
  C   4.93342840798185      1.31383656614151     -0.23418650446401
  C   5.66871769698243      0.21066210982058      0.07280680968586
  O   5.09071508359240     -1.02156171287421      0.18090688291516
  C   3.69773154420159     -1.19291387940822      0.06718734817668
  O   3.30153115329525     -2.33086314240024      0.21887322599768
  H   1.75420755365848      2.28356360140573     -1.00682237338997
  H   3.25539726446336      3.01952936292635     -1.61690085736581
  H   6.00951072003755      5.77693882155196     -0.16399220184377
  H   7.99257356866185      4.31241584926641     -1.41386514893996
  H   6.73896248990555      0.21076159463701      0.19582228443690
