25
Coordinates from ORCA-job 7376optt
  Br  1.19352436421503     -0.13258367521980     -0.49354542954693
  C   3.05945380882884     -0.02770568227936     -0.10390634659338
  C   3.62634750448916      1.16260288059153      0.24270949025098
  C   2.87191274538493      2.43350383115777      0.48005274596525
  C   2.97719012859471      3.56330798899993     -0.53778440184278
  O   2.02723142310903      4.25094834441221     -0.80036910694416
  O   4.15271003257585      3.86684469531275     -1.11141862156906
  C   5.33631240370523      3.06385864505322     -1.01665938507383
  C   5.64493349905293      2.49663956961218      0.36008617521963
  N   4.99843376451913      1.21894994452679      0.58310305281746
  C   5.86362749348018      0.06586390384157      0.46831899928569
  O   7.07730671987780      0.21611058106141      0.67757850588894
  C   5.20282738196500     -1.11556461135477      0.13309108420920
  C   3.80893017166388     -1.21988599310104     -0.16089973134287
  C   3.43493610845220     -2.54378854988511     -0.48037077240559
  C   4.47503022613790     -3.42461344358460     -0.42600723342944
  S   5.98881147910598     -2.67351059757151      0.01541858064660
  H   3.18791931878507      2.86227488222511      1.43968672851327
  H   1.80804709650885      2.23532461384020      0.55884260229625
  H   6.12731860861431      3.74311669156191     -1.33088491459913
  H   5.26562248744689      2.24586269327888     -1.73804060060568
  H   5.37432667694441      3.22968211290331      1.12596041151608
  H   6.71383533689090      2.30640238919862      0.44236611129370
  H   2.42380242035048     -2.82999108337440     -0.73548555485403
  H   4.43860879930121     -4.48565013120682     -0.61384238909617
