24
Coordinates from ORCA-job 7380optt
  Br  0.87546235093931     -0.10092117091170      0.06733083502524
  C   2.77296864122869     -0.11183471617854     -0.16474147435176
  C   3.54322707914479     -1.17675518654240      0.16596797466157
  C   2.97587387484194     -2.44284648387192      0.75554926278117
  C   3.12458751126901     -3.58799806071171     -0.20972169317242
  O   2.22731910709982     -4.11140565036029     -0.80638163784795
  O   4.38733605723605     -4.05139057831118     -0.36931362898746
  C   5.50668680123071     -3.43308670771515      0.17596914065727
  N   5.76755976017663     -2.20090797895470      0.30922399146217
  C   4.97892193921120     -1.10208398788567      0.07603781730782
  C   5.66341620507808      0.11300159642577     -0.12463999044844
  C   5.08932110427393      1.34803324238265     -0.46561632728618
  S   3.32718485940964      1.41462025034688     -0.79728812189575
  N   5.63850605947277      2.51020835628548     -0.64767717679477
  C   7.06947081373972      2.53460750570850     -0.46433493870504
  C   7.62398531448161      3.88000059389388     -0.64897461953325
  C   8.10863270072411      4.96766732315781     -0.79302533867868
  H   1.92082072677464     -2.34296245757430      0.98278754378261
  H   3.52857214401085     -2.68976759584613      1.66754665111810
  H   6.25623970675173     -4.18658329636961      0.37976814155110
  H   6.73973617491971      0.05838214623544     -0.03525972776793
  H   7.58339305431140      1.85949448227333     -1.16735511589545
  H   7.35769756024662      2.18828586637841      0.54087462519075
  H   8.52108045342698      5.93824250814516     -0.92172619217272
