26
Coordinates from ORCA-job 7384optt
  Br  2.77616140874238      0.33554107087443      3.55592334421255
  C   3.10285223358125      0.54994509640510      1.66937618833068
  C   3.47448373114921      1.81769368205040      1.17219690935332
  C   3.00696897759640      3.10923779126273      1.75017719905953
  C   2.03904698755644      3.91866388383766      0.87873399348841
  O   1.87560479669525      5.09161968933421      1.02204754531152
  O   1.37532238221888      3.30938272318118     -0.16495758689633
  C   0.94130581990509      2.01492155623921     -0.13547856016948
  N   0.38075770302134      1.53663969844485      0.87888406529183
  C   1.07003430951981      1.38697487195579     -1.51624314141177
  O   0.88833789245383     -0.00641966682930     -1.51988225835695
  C   2.11701926312482     -0.79681572772716     -1.52327522481730
  C   3.11674593551923     -0.37886969640161     -0.51049819795897
  N   3.98917048248888      0.67317899895888     -0.85248546136920
  C   3.99995042629198      1.88776552656948     -0.14769469057451
  O   4.38469682617334      2.91435533608757     -0.72142003273049
  C   2.85878763941961     -0.53217625398448      0.85871757166294
  H   3.81282258234096      3.82269358907203      1.93486367755138
  H   2.49087051542045      2.94531597172070      2.69746086633265
  H   0.13432957096391      0.56633857928546      0.68660358695021
  H   2.02160458281290      1.69853030929307     -1.95175210546564
  H   0.27416456491759      1.82552979441733     -2.12699917158494
  H   2.53414805942060     -0.73981265426438     -2.53678245297841
  H   1.76457836712947     -1.81206302334300     -1.34078334392878
  H   4.23531688860064      0.79267767622523     -1.82422083280781
  H   2.35191805293570     -1.41384882266545      1.23248811350556
