27
Coordinates from ORCA-job 7385optt
  Br  1.18131450609006     -0.00547117777495     -0.77222162126793
  C   3.03076609207723     -0.02159858231625     -0.16648822363132
  C   3.73649783296291     -1.18591191176549     -0.26488335513307
  C   3.26079724573993     -2.50704580022920     -0.79038934833634
  C   3.86428754610515     -3.67217496707358     -0.03096038878034
  O   3.26232371436718     -4.67987395606258      0.22406083103377
  O   5.14882652480983     -3.56428703338075      0.36166742606839
  C   5.87888434582629     -2.38182306527284      0.02832425689999
  O   6.32460526927757     -2.66432624978392     -1.32380656997166
  C   7.13714056926043     -1.64924122275462     -1.84537737361290
  C   7.58764090883842     -2.10550117033690     -3.22965684298587
  C   8.51576062740238     -1.15910882842832     -3.84132873448635
  C   9.27697800319324     -0.36357175281914     -4.31586486144231
  C   5.09709858007430     -1.15764412549066      0.18982204942385
  C   5.57711811857555      0.06786860618358      0.71471338495249
  C   4.74958877895147      1.15387508112116      0.74775492370703
  N   3.44978883224472      1.15738454076581      0.29526543954443
  H   3.57706572817075     -2.63881381435697     -1.83422830635139
  H   2.18151486152404     -2.61961624158247     -0.75110676446171
  H   6.76721756059877     -2.38981474670924      0.66840408382669
  H   8.01538773008528     -1.48488818662467     -1.20476493359848
  H   6.59486300419563     -0.70085779214195     -1.91101414019873
  H   6.70897811350457     -2.22638703173565     -3.86629951024858
  H   8.06220751468675     -3.08503685414360     -3.14398545438942
  H   9.94855799498666      0.34377720406105     -4.73807712015208
  H   6.59364882118758      0.15162448486186      1.08696051703846
  H   5.10214117526321      2.09846459379033      1.14748063655342
