24
Coordinates from ORCA-job 7388optt
  Br  3.04846868778198      3.08009306682636      3.54962751934355
  C   4.62699571558890      3.03249632924269      2.43066417889539
  C   4.53014030246865      2.75748772958087      1.04802129554159
  C   5.54271861901643      1.96390387528538      0.45538999956144
  C   6.59343263317276      1.39003859857833      1.11635525193629
  S   6.89430237694337      1.58059339700758      2.85884193064139
  C   5.85817372502365      2.99343742139319      3.18819693579833
  C   6.23918592374171      3.92140214576396      4.09295737561105
  N   5.52982954601700      5.17448699913165      4.24326127179897
  C   5.16301950974092      5.65171649388660      2.98714276295045
  C   3.97559423327196      6.04903514513331      2.47717541795756
  N   3.92977371383886      5.50038417424215      1.19262115733505
  C   3.02232667830239      4.69004198448641      0.83489061560668
  C   3.55606932785885      3.42960821606224      0.15136297178530
  O   3.24707580789282      3.03775650988724     -0.96072594032820
  C   7.55231059186276      0.57980638599050      0.46802829425812
  C   8.38269032362051     -0.12382760635169     -0.05249610636949
  H   5.49046767045144      1.82501741755750     -0.61882218700884
  H   7.13583358402598      3.80308318678695      4.68713512477100
  H   4.74412765555701      5.11650749587842      4.88452537962231
  H   5.92574633356898      5.45515473506861      2.24591604156453
  H   3.07380581535124      6.20849892924701      3.06531078059397
  H   2.03836582602811      4.63357435381299      1.31572628451055
  H   9.10654539887361     -0.74429698449832     -0.52010635637700
