22
Coordinates from ORCA-job 7394optt
  Br  4.64869467683868      1.86800795389693      2.26792177449144
  C   4.91898370182635      0.82252487249200      0.70285641896820
  C   5.48593192569474      1.39850319761142     -0.42815389236456
  C   5.74819546180357      0.71247934748829     -1.62876404429627
  C   6.15385843050466     -0.66125576924288     -1.45942590858628
  S   5.08601377870494     -1.66265643323989     -0.50901332663887
  C   4.48260844098978     -0.53768015935252      0.79738627357266
  O   3.78258359931940     -1.03432119351042      1.65748825002049
  C   7.55353415227737     -0.63711008293698     -1.08089398532780
  N   8.25137801123495      0.46702678233785     -1.12281611806984
  C   9.06599306795781      0.42311764373833     -0.02021344122096
  C   9.20460118551467      1.76702700059496      0.62274672358621
  O   7.85130913898341      2.14726770689516      0.96692887105753
  C   7.14941945742131      2.94093450776555      0.10767125570006
  N   6.03498375669960      2.70201657842646     -0.42521727981447
  C   8.99847597880747     -0.81321410018721      0.52565494365119
  O   8.08426755069852     -1.53709658539587     -0.19347262491680
  H   6.29231600110683      1.30308304227704     -2.35393822560546
  H   9.76604121514915      1.74287800534796      1.55471380325270
  H   9.63342018771629      2.50603210922246     -0.05875922977470
  H   7.61161219633287      3.91597110216086     -0.05947435534588
  H   9.42377808441752     -1.28853552638950      1.39077411766144
