23
Coordinates from ORCA-job 7395optt
  Br  1.34323258943306     -1.32681036878982     -0.38067081393089
  C   3.02957526211385     -0.49032199712580     -0.65165687189711
  C   3.79708105512720     -0.12587109612067      0.44060278008141
  C   5.11371715617360      0.37929243729291      0.34141256049335
  C   5.91587119687822      0.20236108220574     -0.79025978280395
  S   5.10930130412037      0.23959177263931     -2.35618792235088
  C   3.39178041666106     -0.26684782199138     -2.01695157973228
  O   2.69461961752328     -0.39510965422439     -3.00218330253861
  C   7.26972631824376     -0.20206845013942     -0.74062913435398
  C   8.02623714434402     -0.80281739215144      0.26529133529778
  O   7.55878070386952     -1.29111275881160      1.50454726451264
  C   6.32724968265197     -1.83087397477711      1.45322142716544
  N   5.53568529420241     -1.87371403105478      2.44854736833124
  C   4.22909731637393     -1.86783859993447      1.89743640276682
  C   3.68927800564437     -0.62893425713735      1.84333588171557
  C   9.40377863174888     -1.04161090234189      0.08689389641042
  C   10.58394765420726     -1.23765208767098     -0.07761352942941
  H   5.63880556641645      0.55295865989558      1.27123582595086
  H   7.83238178719700     -0.11440054886559     -1.66466165439712
  H   6.03981378232461     -2.12910353742104      0.44167040631345
  H   3.98982900254185     -2.60069568688153      1.12667948540157
  H   4.07055705125229      0.06126858939989      2.58753612886255
  H   11.62165346095098     -1.40968937599415     -0.22459617186887
