25
Coordinates from ORCA-job 7396optt
  Br  5.40197340587828     -0.87161096265680      2.86432307891800
  C   5.42516238714132     -0.52186649852558      0.98808318067550
  C   6.54522290734698      0.16395279187325      0.43824328084464
  C   6.05727818382364      0.61604280608993     -0.90012700759558
  C   6.05726511196432     -0.47904819489028     -1.72516291527825
  S   4.47280833672335     -1.21930768045477     -1.65825739389908
  C   4.34701165822885     -1.13095942333056      0.27022111667847
  O   3.37592279421330     -1.71687645116012      0.69408204034538
  N   7.24175729643832     -1.17911958507996     -1.96672722529324
  C   7.68957029539995     -1.91265009367274     -1.03113745227686
  N   8.98929095357168     -2.34069606037057     -0.96810789194681
  C   9.62008760204586     -2.36592781256404      0.34763590810270
  C   10.53798758459645     -1.18383975568701      0.64502675132429
  N   11.71556421920467     -1.47694245978342      1.06049001203107
  N   10.09659615470487      0.09806649077870      0.41586401150919
  C   8.78578998856583      0.55965997520362      0.20217379442443
  N   7.78931932218014      0.03852702643193      0.87856033612817
  H   5.13016382835038      1.17265701664202     -0.86722427478224
  H   7.08825190389293     -2.20526591600402     -0.16858099548657
  H   9.55895525121936     -1.94237221697595     -1.70368924981410
  H   10.25076446670974     -3.24564331595908      0.45682327636996
  H   8.83179609581416     -2.39956354940106      1.10067321431976
  H   12.24070021662498     -0.63333418008974      1.29188105090141
  H   10.82806490597826      0.79434301818994      0.42893759161818
  H   8.64769512938222      1.24577503139633     -0.63200423781843
