20
Coordinates from ORCA-job 7406optt
  Br  1.36318081631512     -0.56244282672808      1.70327735318631
  C   3.10343328810646     -0.08332761411438      0.65138581134970
  C   3.77959575475733     -1.20741065935859      0.16320448619603
  C   3.42305247852637     -2.59089802382066      0.28646525258314
  C   4.28876303660037     -3.44011749556412     -0.30783067061967
  S   5.62731738865657     -2.62998431883305     -1.07710706648778
  C   4.98957162225486     -1.08322339469695     -0.58144646592620
  N   5.70647627733407      0.04101167422218     -0.86634592659840
  C   5.77298715271967      1.23025829094631     -0.77514740234666
  O   5.97520163998957      2.38785450862433     -0.76619643563658
  O   3.33945710619669      1.09634918925732      0.57485332361472
  C   4.16986839844649     -4.92792416046688     -0.46531933925172
  N   5.45322893352396     -5.61589696861082     -0.26874979960082
  C   5.28815640026801     -6.37000831759071      0.72041290481302
  O   4.05589784880446     -6.41035025924848      1.31800107134447
  C   3.25530532198451     -5.54788870171052      0.58155383543789
  O   2.09859822582589     -5.42552406523300      0.79844837284636
  H   2.52488871108672     -2.91507145554052      0.79210227072739
  H   3.79421344862468     -5.18276338568853     -1.46259503509674
  H   6.02880614997816     -7.02064201584480      1.16603345946553
