25
Coordinates from ORCA-job 7407optt
  Br  1.08146899127106      0.05832564968941     -0.18512703249689
  C   2.95940138341306      0.10218712374407     -0.05085901489021
  C   3.68067168580625     -1.09092919164346      0.03124951064076
  C   3.28573471353515     -2.43378252586274      0.07217198646233
  C   4.33122946414686     -3.34497974069058      0.13688197516022
  S   5.89089811568672     -2.53435193430422      0.15637470904120
  C   5.11808112968170     -0.96273137518268      0.08627573219913
  N   5.78032014894724      0.14180102187589      0.08413351739138
  N   5.00931967492171      1.26418577306685      0.03466608405168
  C   3.61759958560158      1.36849149785095     -0.05737550563221
  N   3.01691089019442      2.51348895399473     -0.13496736968026
  C   4.27034581521162     -4.78310384785922      0.17938167679913
  N   5.24175402865898     -5.60903246314984      0.39408426589206
  N   2.99780829562059     -5.32313150948786     -0.01792171400333
  C   2.91760366875508     -6.75869937462221     -0.18933020761742
  C   1.54206604149074     -7.16867995081116     -0.47006326691797
  C   0.41757753423761     -7.49619378718426     -0.72302168155622
  H   2.24492209626504     -2.72668495933652      0.08987677366606
  H   5.53952546117567      2.11690537138202      0.00378297869950
  H   3.69534013911918      3.27220684037488     -0.12210298120517
  H   6.09623478174254     -5.10240510556001      0.60465085195130
  H   2.40213014176553     -4.79150130877603     -0.63355440641944
  H   3.27335592316438     -7.23984210178692      0.72281619891528
  H   3.57665260607908     -7.11330761817928     -0.99088572273612
  H   -0.58295231649187     -7.77923543754172     -0.94313735771477
