22
Coordinates from ORCA-job 7408optt
  Br  1.16209469480347      0.11645578520160     -0.75959618150305
  C   3.00322940116372      0.13775748984785     -0.26839652591250
  C   3.68096350402055     -1.02994644114842     -0.02558975552308
  C   2.99224127843024     -2.31309122151732     -0.02231651702495
  C   3.56808060850027     -3.49672743803712      0.20453604727325
  S   5.24683597207358     -3.80056274572358      0.42494256590200
  C   5.88729790303049     -2.17496965054685      0.29637736837462
  C   5.10917415726322     -1.00569000908826      0.25898906342726
  C   5.64754088714339      0.29624127015069      0.51270475510451
  C   4.91425470436098      1.44716935391535      0.34839411270119
  C   3.58189179648477      1.46615111274192     -0.16603136430049
  N   2.89829000666924      2.53948942755402     -0.45946887217775
  N   6.87552955733427      0.49516514546894      1.18610766871416
  N   7.90581318442741     -0.09510082905502      0.98240756315377
  O   7.86113834297358     -0.96925190289454     -0.21125837851700
  C   7.31406905894527     -2.18621246838495      0.13794740860383
  N   8.02534262587435     -3.24982184753423      0.21841358505574
  H   1.92204894259178     -2.29614488648770     -0.16468028463232
  H   2.96431750884905     -4.39512046491795      0.24786125837569
  H   5.37145049291607      2.38761604249850      0.63232167744505
  H   3.48879618672953      3.35444128759093     -0.30191137874752
  H   8.99259918541447     -3.01584700963382      0.00924618420758
