25
Coordinates from ORCA-job 7412optt
  Br  1.27858251385384      0.22444996457205      0.73370973821744
  C   3.15754550931638     -0.02763698024718      0.52881183390982
  C   3.66879288597321     -1.20987296344909      0.06719625810204
  C   2.82471949634531     -2.34058399298206     -0.30612265827109
  C   3.27786615598479     -3.54263381373581     -0.67405305479412
  S   4.93985942635220     -3.99678163286470     -0.81542001398804
  C   5.74852312372094     -2.47283032523960     -0.56441004465858
  C   7.23289432615695     -2.55737232872582     -0.74359341015159
  C   7.98289522589932     -2.89947556700394      0.52767305711943
  C   8.25269983582170     -4.31278750523486      0.84625137708348
  N   9.34613339643825     -3.42004414556589      0.44547514336712
  C   5.09891099416575     -1.32255269658833     -0.05444389289993
  C   5.82597417777358     -0.17711484294121      0.33861072823309
  N   5.33145047875078      0.96092079942368      0.77410140228988
  C   3.97400451097321      1.13215895135697      0.89584782044095
  O   3.48029280115248      2.19041829334747      1.29066696053718
  H   1.75437989955124     -2.19636815816638     -0.25978632271097
  H   2.59120096318465     -4.34651926619773     -0.90740695227724
  H   7.61111421031626     -1.60976262032132     -1.14072551737210
  H   7.47224943686920     -3.32702807644407     -1.48960090182782
  H   7.82424878459364     -2.21097199510557      1.35035109272811
  H   7.90213675707659     -5.05125241255075      0.13391928302821
  H   8.29061743436663     -4.64613981096986      1.87493524118713
  H   9.58387564616920     -3.58341352407927     -0.52853937681734
  H   6.91203200919381     -0.21380535028670      0.29155220952491
