24
Coordinates from ORCA-job 7413optt
  Br  2.16991663985315      2.04945726915499     -2.25127479076980
  C   2.97595507395489      0.80261953686619     -1.01796871117893
  C   2.27032747987776     -0.40031317371587     -0.81809510254994
  C   0.97653723571585     -0.77639150263120     -1.30480232828038
  C   0.15040018226093     -1.54345276800688     -0.52157197994684
  S   -0.81726359616890     -2.88852673550043     -1.09614626211932
  C   -0.01048529069999     -4.33964930182587     -0.47754771637761
  C   1.08863995881516     -4.58192973712087      0.26306138916676
  C   2.05153031116913     -3.55769757541435      0.68713709820189
  C   2.47820909858579     -2.68859866582648     -0.22312860563666
  N   2.93112480803999     -1.36706261421026     -0.02419466248725
  C   4.03294046646334     -0.97864414343288      0.68884116525752
  N   4.76420954573693     -1.65796687675594      1.56881990125707
  C   5.73855697647413     -0.74847379776656      1.85028784788807
  N   5.69498747319328      0.42608455152969      1.22049328866360
  C   4.58654876490071      0.30189550057363      0.45043980437726
  N   4.07933606330613      1.17777412291684     -0.45503787252117
  H   0.72562326103259     -0.56298031525199     -2.33877411203316
  H   0.34043770209365     -1.57688436480216      0.54184232357461
  H   -0.64180673668490     -5.18988483334816     -0.72353028608063
  H   1.21234384575592     -5.60488814715475      0.60838992190604
  H   2.26283427464095     -3.40667871416438      1.74051069552472
  H   2.25893466045044     -2.88859124712647     -1.26579174081489
  H   6.51616180123304     -0.97921646698583      2.56604073497904
