24
Coordinates from ORCA-job 7414optt
  Br  1.27967074345251     -0.98091123356514     -2.80076599822774
  C   2.26783435345362     -0.77806134198052     -1.15840398183605
  C   3.20149582158543     -1.73092605787215     -0.77496570304611
  C   2.79353690163188     -3.09805452276430     -1.05089165781813
  C   2.68025425910166     -4.05119839444606     -0.10730541631108
  S   1.15011514225068     -4.93975959533079     -0.11101789061373
  C   -0.03629321105209     -3.63318831634819     -0.22145236883689
  C   0.14386946757487     -2.31908067196129      0.11300428884554
  C   -0.73350695744266     -1.28267563972147     -0.29345349952939
  N   -0.57452801807938      0.05549388123019     -0.17928910845946
  C   0.53525453314859      0.73543647756450     -0.12686339994473
  C   1.90599806085153      0.29906234496077     -0.34103819118067
  C   2.84582751773158      0.64781014611278      0.65730903461919
  C   3.94002595708731     -0.12179770551629      0.93796999012633
  C   4.10335155660364     -1.42567724216910      0.34309076059002
  O   4.91876378257988     -2.26463430132164      0.76062502035944
  H   2.14136719400902     -3.21267280589946     -1.90812187155636
  H   3.26166684994412     -4.03876239998502      0.80452238610257
  H   -0.94348273009756     -3.93872073188274     -0.73461312374786
  H   1.04589720084289     -2.03770210455152      0.64166274832222
  H   -1.68425857624211     -1.58447385469980     -0.72647325578556
  H   0.42434702570597      1.76011067262752      0.23287275665679
  H   2.62741101613540      1.52085881956180      1.26672791977870
  H   4.62438210922319      0.14052457795795      1.73487056149293
