23
Coordinates from ORCA-job 7415optt
  Br  2.20215861537711     -0.09180900989435     -4.95896388446696
  C   2.15322329512409     -1.33717642317473     -3.54044059578231
  C   3.38178256772482     -1.84738875726933     -3.03267532469818
  C   4.64628113768261     -1.28142925153710     -3.31102162644603
  C   5.48484842833170     -0.80520053264106     -2.30445742299830
  S   4.90189895742857     -0.35520157571227     -0.67890180690367
  C   3.29881346576402      0.25966255588810     -1.08011806746566
  C   2.20524465762345      0.24029070900531     -0.31564199647885
  C   0.83382602286685      0.50116502579631     -0.88908611857115
  N   -0.03511596532709      1.10947147612726     -0.18223529633899
  N   0.67880391526381      0.07631474688748     -2.21355429848606
  C   1.25239774061400     -1.04483089459157     -2.48979044908733
  O   1.15088168926805     -2.05573549589646     -1.52568256789285
  C   2.22455731527545     -2.84297288941226     -1.33814687679604
  N   3.31756212480528     -2.74406500140991     -1.95640209681301
  C   6.81386409739084     -0.34675464343813     -2.62431899537500
  O   7.41370613411754     -0.60019658431512     -3.66032687060184
  H   4.91390482721581     -1.01134322340331     -4.32639832601894
  H   3.22527779336503      0.60771150576747     -2.10528277149988
  H   2.24007341800757     -0.06318884905358      0.72511120074810
  H   -0.90565668952700      1.16410016807788     -0.71014815705046
  H   2.06082657239792     -3.57664999787920     -0.55768616499948
  H   7.28583987920951      0.28822694207859     -1.85083148597707
