25
Coordinates from ORCA-job 7416optt
  Br  1.65013735646794      0.03350677684694      2.22512796511573
  C   3.14124098785269      0.00462966248321      1.02523768082132
  C   3.55461614594113     -1.19249667808527      0.48150697008541
  C   2.65004585785062     -2.29790336334418      0.19750125859350
  C   1.46345620712408     -2.21769568976572     -0.44324515371596
  S   0.61397141694232     -0.87329446792179     -1.28093891489090
  C   1.58051613327501      0.56338785729835     -1.06587195587314
  C   1.12487653164850      1.59540051635738     -0.32394514534637
  N   1.90906623140504      2.58382320675483      0.21719541115631
  C   3.27553333863946      2.43525982877434      0.50843585861798
  C   3.86026716522959      1.21299836851582      0.76571890242154
  N   5.22563216073991      1.08569526420898      0.54153284323859
  C   5.70629541015113     -0.08274587816482      0.27596694794051
  C   4.92976926978419     -1.29650518708224      0.06311531308208
  N   5.40925714731191     -2.39722299504350     -0.47557237120442
  C   0.71621210738909     -3.41704155359433     -0.66203782690464
  C   0.05485370201304     -4.40126235033016     -0.86037942417590
  H   3.01131946404716     -3.29852018691663      0.41053458431488
  H   2.59833492149414      0.54408835000616     -1.42558252891547
  H   0.08522767882290      1.61952846898841     -0.01770968882618
  H   1.41618430434099      3.33533592160648      0.66912798714967
  H   3.90660228551977      3.30372581134655      0.37464219195480
  H   6.78476810399900     -0.15572147742607      0.12926640548792
  H   6.40167034873453     -2.26480852321754     -0.66920658600929
  H   -0.51885427672418     -5.27916168229520     -1.02842072411799
