23
Coordinates from ORCA-job 7421optt
  Br  1.00524155672346     -0.15084645829722     -0.10244118047379
  C   2.91305883321272     -0.01493117543443     -0.05433744768675
  C   3.59466505886180      1.19352657169224     -0.06692736750130
  C   2.82973764631894      2.42902797522146     -0.12645094003442
  C   3.33311991653642      3.65829499953360     -0.25826803178439
  S   5.02004257847009      4.00379774683468     -0.28490431626473
  C   5.77583273329394      2.43615122225472      0.14042309650109
  N   6.99660420537212      2.48160574012841      0.53802797605800
  C   5.03606744456878      1.19817132171420     -0.03179701371598
  C   5.77053897246074     -0.03197441358964     -0.06592603402141
  C   7.16676837304194     -0.16483922829613     -0.23286550990835
  C   8.33042987938583     -0.42545730025124     -0.42105132154863
  C   5.02732552715953     -1.25497468354448     -0.02691219878499
  N   5.50337960386013     -2.49849032743806     -0.00455989675792
  N   4.40254640121976     -3.27848560645196      0.02747890859533
  C   3.23609818879785     -2.57820700250375      0.02217946173870
  C   3.59775760059576     -1.25169507097918     -0.01258192404566
  H   1.75328153234094      2.33830166373368     -0.10376855052766
  H   2.69244779712287      4.52576199825091     -0.35005203119720
  H   7.33721555560748      3.43885908347707      0.59287928833402
  H   9.36575649227244     -0.61363257481499     -0.55991503490073
  H   4.51546712512965     -4.27413738873810      0.04520129548946
  H   2.27161697764676     -3.05582709250176      0.03856877243730
