24
Coordinates from ORCA-job 7426optt
  Br  3.77883537568050     -0.01413104703051      2.30096459644349
  C   3.63651290538801      0.60243244954729      0.51033450793854
  C   2.50750521050888      1.13465744235680      0.00629249314323
  C   1.28087939395213      1.28780785329739      0.79430358754593
  C   0.07322489451840      1.02591154059793      0.29398727731466
  S   -1.37482357406897      1.77893900567377      0.95391237065951
  C   -1.18079182996516      3.51281292203183      0.40582279440980
  N   -2.18260906535438      4.17518976670483      0.02819151600456
  C   0.20336915741012      4.12353738405241      0.53433943133079
  N   0.35180749328204      4.87775644059878      1.56434223631468
  N   1.17567609237268      3.71144551055906     -0.31236587406521
  C   0.88607963364190      3.13646218840104     -1.47692015698619
  N   1.61876671399242      2.23527249063880     -2.08745081783523
  C   2.58866251832371      1.55892554914630     -1.40567298448660
  C   3.68962769349081      1.05070618175046     -2.11418197834869
  N   4.75087139858052      0.45880030655506     -1.61054284049620
  N   4.77057995550929      0.42878952748218     -0.23066600982357
  H   1.36720219208412      1.77386906571605      1.76154329223461
  H   -0.03290826219188      0.56331951215422     -0.67921191545537
  H   -3.02177006567898      3.59379410908182      0.00549776188648
  H   1.32620235977667      5.18460028772030      1.57827218617056
  H   -0.01255668675844      3.43924501195503     -2.02606863059199
  H   3.69014498172568      1.15271535177692     -3.19341676145272
  H   5.52751151377989     -0.10585885076780      0.15669391814493
