19
Coordinates from ORCA-job 7427optt
  Br  3.05595722703759     -0.83313681501920      2.71046656799833
  C   3.69307542935805      0.02606356565375      1.10393232498993
  C   2.95454690822932      0.99385099616944      0.53314164863890
  C   1.74500953146085      1.58544391175431      1.14141123876743
  C   0.63339890739706      1.73666849437799      0.42784750642566
  S   -0.56794856656067      2.99045422844341      0.73134580107860
  C   -0.03960915236874      4.16410225132016     -0.52464973022212
  N   1.07909154629948      4.33573301697530     -1.07256885603506
  C   2.25701645372577      3.67132543025530     -0.58069162330655
  O   2.71862067687676      4.04609842909848      0.48777575789218
  C   2.73765207502101      2.60028975040010     -1.39934977709703
  C   3.25247857855766      1.42053846082075     -0.84630215328565
  N   3.68944150538506      0.44822460040279     -1.71270831260539
  N   4.36020361183819     -0.55338625606597     -1.45365993534204
  S   5.03749240554115     -0.64268701874008      0.27414272126478
  H   1.85908505485880      2.07790438563599      2.10061046564451
  H   0.54742781753132      1.26502635898739     -0.54359892246243
  H   -0.88671302895998      4.77410414449357     -0.84017014378916
  H   2.55177301877129      2.63038206503651     -2.46497457855488
