21
Coordinates from ORCA-job 7429optt
  Br  1.16831694470092     -0.12496978599681     -0.41136930621543
  C   3.08971761557367     -0.08450858915630     -0.20410681474854
  C   3.70340601994504      1.16366571339206      0.02472093723416
  C   3.02861286161148      2.38648269646436      0.23821204502418
  C   3.62095561949485      3.55156719080061      0.58667331849520
  S   5.34666493782378      3.72616458442901      0.78256055508259
  C   5.84559363027899      2.30410314510976     -0.19297407919500
  N   6.80204282135249      2.33755030179073     -1.00554948914870
  N   5.11225705930390      1.12615750011779      0.03135680032447
  C   5.78169690986534     -0.11267389332417      0.15169167080365
  N   7.06411037042692     -0.10442241942426      0.46927121016853
  C   7.60328442700605     -1.33355938842596      0.55993575164450
  N   7.05922884719463     -2.50256769952945      0.36779637370844
  C   5.70984188798073     -2.56245518247462      0.03739267177076
  O   5.13758969185517     -3.62158196930552     -0.16743111454139
  C   5.02154814429905     -1.26599966970252     -0.04072421022988
  N   3.67709324078385     -1.22273361164474     -0.27950606457209
  H   1.95497037476761      2.36995059579025      0.12397118421919
  H   3.05166402590124      4.45371222666948      0.75480648247789
  H   7.23752175586091      3.25690231726790     -1.01626481300872
  H   8.65688281397331     -1.33578406284759      0.83653689070619
