23
Coordinates from ORCA-job 7435optt
  Br  0.98101496032757     -0.19635169633985     -0.55307111272400
  C   2.85182820060692      0.04528963256394     -0.38987556015525
  C   3.65080303670512     -1.03551078068637      0.02360076184808
  C   3.21346053025768     -2.25477818269259      0.53357430888663
  C   4.01147597103481     -3.35230860119955      0.74440735041042
  S   5.60986097228346     -3.46496739666818      0.05349805108621
  C   6.00183106841113     -1.80428643413043     -0.35417389249868
  O   7.08416332313412     -1.57626549150305     -0.84827769828939
  N   5.07069977862102     -0.80092975820352     -0.09713847610892
  C   5.49086809796890      0.53842057432151     -0.10146170417314
  C   6.91687098560247      0.86719030673873      0.28195799380403
  O   7.33816111211379      0.10565239400264      1.40652612707883
  C   8.54996766001129     -0.47972192093867      1.34826117795287
  N   9.09365578949926     -1.07555260928866      2.31184497618559
  N   4.73073662651097      1.52322375534753     -0.33446144317341
  C   3.35981737862191      1.32165418597082     -0.72023726881955
  O   2.75800603047945      2.25666878648583     -1.23447931982753
  H   2.16111559019960     -2.32626185940950      0.77327462970142
  H   3.65859238210794     -4.26534741046630      1.19722917600600
  H   6.91130820496803      1.92181421778474      0.55130764954115
  H   7.58605370502966      0.70319075066579     -0.56151196048023
  H   9.04294093862588     -0.40350408881933      0.38059365680662
  H   8.47776765687896     -1.05831837353554      3.12561257694224
