27
Coordinates from ORCA-job 7446optt
  Br  1.22037353566319     -0.39783923002357      0.00208050897251
  C   3.11890988250481     -0.00870214444331     -0.07799218804310
  C   3.67061287117998      1.26144069877584      0.30241153558192
  C   5.11645689820636      1.22156153301633      0.21466182913263
  C   5.93769398884133      2.41618904504415      0.57516654439216
  S   5.29895743960522      3.85844990188183     -0.24650906498013
  O   5.19404148957355      3.63868502216824     -1.66518425309829
  O   5.99849467176854      5.04407101212885      0.20795491698630
  C   3.68169746987065      3.87414341297099      0.50400846624105
  C   2.79094089717841      4.94426823154736     -0.15411121954240
  O   1.85783052959892      4.26904200266683     -0.97213562852599
  C   1.75106055650251      2.94932390898666     -0.50720341870560
  C   1.53245229504080      2.74583176142789      0.96015345690399
  C   2.92294652757417      2.55345436123992      0.34908996533792
  C   5.78564843638772      0.10354691254813     -0.20976798311382
  N   5.22761766306830     -1.07847505964592     -0.55566778215387
  C   3.87522130540850     -1.08485966942087     -0.44789045421306
  H   6.97701279123359      2.31065251860679      0.26368375402936
  H   5.89982170677139      2.68217949765143      1.63822943109254
  H   3.88630782239499      4.11454440020458      1.54926304262751
  H   2.27304941545552      5.51907379752178      0.61876919229669
  H   3.36254144783720      5.63549609153183     -0.77465840364740
  H   1.31972699055478      2.27593145218310     -1.23196508981012
  H   0.99783116730574      1.86798985926608      1.28174176099774
  H   1.38316327488639      3.62540697603373      1.57588673100788
  H   6.87128291281155      0.14875063650633     -0.26768623728359
  H   3.37730601277582     -2.02215693037503     -0.67132941248282
