26
Coordinates from ORCA-job 7463optt
  Br  3.89159562154922      1.65312248913985      2.52548230884416
  C   3.82774224189719      1.00471001092394      0.73375264060196
  C   3.79641975623365      2.08098991782743     -0.27279536337592
  C   2.62723846263332      3.03860219432295     -0.37990354352813
  N   1.39110151250224      2.28189695720923     -0.24545939133111
  C   0.24099908197712      2.61374295783364     -1.04044213510725
  C   1.05306426307368      1.39539227891497     -1.33854684349925
  C   0.74224797960913      0.03388452866847     -0.96776662776506
  C   0.77692832741274     -1.08832583626764     -0.53930537315730
  C   1.09247230540006     -2.37908310952589      0.06986044413307
  C   2.63051880343354     -2.55732203871136      0.17897304815911
  C   3.26550155390361     -1.49599976158292      1.06084551853790
  S   3.37465505090821     -1.82672235136375      2.71932488880678
  C   4.76411753786089      2.08650114846092     -1.15670411457477
  O   5.62161299280430      2.06943816441564     -1.94748250598603
  C   3.56298542313729     -0.29885229207491      0.38502731626089
  H   2.68031502577741      3.58677847697014     -1.33388497016353
  H   2.65383757854374      3.76460895062582      0.43687872975200
  H   0.32554200338174      3.42838990125294     -1.75654381202362
  H   -0.71799208813227      2.51946688506029     -0.54593417250367
  H   1.67815448086566      1.48298493919526     -2.22571415162738
  H   0.65275735680299     -3.19835242106102     -0.50545974384622
  H   0.67645466874320     -2.41614067327743      1.07999881202041
  H   3.04867019768619     -2.52728085429407     -0.83283766761057
  H   2.81993313422942     -3.54316178476447      0.60438497534040
  H   3.47012672776569     -0.38026867789806     -0.69674826635687
