25
Coordinates from ORCA-job 7465optt
  Br  1.13667581116647      0.50877049071619     -2.51245557455973
  C   2.70699736899268      0.55541126999810     -1.41091743957136
  C   3.13508281133989     -0.61332702364125     -0.73353038305504
  C   2.22209668461639     -1.87736399578272     -0.71184294456373
  N   2.30000299817261     -2.81562967217024      0.48612000580765
  C   3.00286028708763     -4.13726143636261      0.28200012635844
  C   4.46068613102834     -4.30935176406871      0.82798095068555
  O   5.58986169813995     -4.06192523490743     -0.00448169319741
  C   5.33774024408573     -3.11845640311489      1.02836943597980
  C   4.45657330767995     -1.98473365684889      0.58151124932234
  C   3.15548451926191     -2.11164648585236      1.42123931216206
  C   4.38403657025284     -0.60671529997535     -0.02699754914084
  N   5.23618109566971      0.35401615377359      0.16731723160175
  S   4.93561696303728      1.85961290452235     -0.51310012423654
  C   3.38756860319848      1.78631531831149     -1.45412003081985
  O   3.09025292604996      2.82262799053014     -2.04076515575142
  H   2.37291169978893     -2.47305018115547     -1.61921295216490
  H   1.19393582408908     -1.52496948333009     -0.74877320283181
  H   2.98897965338331     -4.40273103763522     -0.77742286138444
  H   2.40084192070970     -4.88021610288851      0.80944863454838
  H   4.59436571563162     -5.17940771665674      1.46257846502613
  H   6.07695993125915     -3.08832699389056      1.82054051626252
  H   4.21251236467603     -2.48218427192094     -0.34911375150315
  H   2.73208958629811     -1.14495035696420      1.68355213196902
  H   3.29268528438422     -2.69550701068563      2.33507560305657
