24
Coordinates from ORCA-job 7466optt
  Br  1.86781178038065      1.78854732422423     -0.89446677687069
  C   3.44423279369884      1.05797019257354     -0.14874149086187
  C   4.35172763305819      1.86902592800762      0.45172996919898
  C   4.60023147342909      3.37437156974881      0.51808232424282
  N   6.07123203741041      3.47895921312532      0.61026801390652
  C   6.79342519656632      3.30949660688838     -0.64289990597814
  C   7.69784738063266      2.30469169594011     -0.47367500312407
  O   8.32028497758600      1.49137919381770     -1.38559148019722
  C   8.25439473582638      0.16475593807473     -0.81166028658814
  C   7.51213879962535      0.26478216623164      0.54843919556705
  C   5.97698576697843      0.14807935367058      0.47303191981689
  C   5.11994376348911     -0.72545331472892     -0.11753929522611
  C   3.72481674832216     -0.36736880585171     -0.37336394908963
  O   2.90492420034650     -1.15009675623407     -0.85380934480287
  N   5.47217133296768      1.31673048935802      0.95676054507251
  C   6.46428739900409      2.30840571682480      1.36728045494931
  C   7.67989670525888      1.75005151745455      0.83839993299238
  H   4.14995405762711      3.81185303929465      1.41282648644490
  H   4.20787740959115      3.87743141690896     -0.36357082145930
  H   6.64268426906664      3.98937283573259     -1.46719677279245
  H   9.27496816197250     -0.18921474289938     -0.65285413058014
  H   7.74959798138676     -0.48612647961337     -1.52816157699379
  H   7.93723820378595     -0.44173142554047      1.26499466788733
  H   5.46432719198908     -1.66391267300832     -0.53228267551424
