29
Coordinates from ORCA-job 7467optt
  Br  2.30198262464992      2.66879912181616     -3.49251410937211
  C   3.44042298514390      1.85253840737520     -2.15617476429384
  C   3.55820936726967      2.38115707811307     -0.90211000829541
  C   2.81455166481359      3.61649060703447     -0.43967021824739
  N   1.56728651998919      3.28464579620469      0.27492883798023
  C   1.64815434336653      2.86496546189887      1.69119716047465
  C   0.81508443662388      1.59849348061672      1.39676372201402
  C   0.85652788544051      2.03525830717092     -0.08253838983423
  C   1.41240166933584      0.21730935432122      1.75023202300562
  O   2.70967946213283      0.25691372309521      2.31365496581894
  C   3.73920259092798     -0.40116752238544      1.55708667591782
  C   3.91817765205892      0.16350720118073      0.17962026704587
  C   4.05892245414494      1.55992580578470      0.13623469501303
  C   3.71247769092210     -0.63109040946746     -0.97771359782660
  N   3.42879279128716     -1.88934286059227     -1.13992795974264
  S   3.99391666938046      0.24406171428279     -2.54203189214012
  H   2.57902251208897      4.27164649500329     -1.27787833748506
  H   3.43652227272392      4.18206857060463      0.26015440998642
  H   1.17881536699205      3.58500704433776      2.36822745456836
  H   2.64792539072807      2.63372327222958      2.05211241830302
  H   -0.18985963052816      1.65969461346796      1.81574831050304
  H   -0.11061705024738      2.21679276027918     -0.55730756869309
  H   1.43068761048747      1.34916522827779     -0.70830035299407
  H   0.76555096811042     -0.26966522913209      2.48745424678943
  H   1.41378006225865     -0.40418568116220      0.84778583421092
  H   3.52848452751864     -1.47563047662759      1.52801141689021
  H   4.63483942170349     -0.25423824765099      2.16728383787888
  H   4.29342397671995      2.05051444198730      1.07390174717266
  H   3.38463376395634     -2.35635805806429     -0.23523082464857
