28
Coordinates from ORCA-job 7468optt
  Br  3.33909552381870     -1.35559032538190     -2.42979290945559
  C   3.64229260205668     -0.38869620449241     -0.79383594645854
  C   3.33576547799444      0.98706629373913     -0.69844936652074
  C   2.46449955518233      1.66280449536154     -1.76103986242620
  N   1.03268699759879      1.91094319001844     -1.41302273787340
  C   0.25185191347332      0.83800396903520     -0.69305463970179
  C   0.76793229964877      1.45803217816234      0.62902577561193
  C   0.92343451264497      2.74177736501811     -0.18870060230148
  N   0.39151046798364      1.47382229609238      2.02806565182098
  C   1.47855352556416      2.22367868609115      2.70973026409749
  C   2.87458477053200      1.55034776449995      2.83965863471005
  C   3.67047509100006      1.12364417887779      1.60933539869449
  S   4.61921347481646     -0.34494630147109      1.77430747366216
  C   4.30910896386314     -1.17577524473269      0.17814626459300
  O   4.69776123902247     -2.32677093764378      0.09451253505129
  N   3.48248555103305      1.70099687850609      0.41822911757046
  H   2.47831635199924      1.09712013125041     -2.68687651343201
  H   2.87310140179687      2.65485650352529     -1.96298378831262
  H   0.54755534508351     -0.18992140908034     -0.90677538700872
  H   -0.80912590342376      0.98435990076920     -0.91409729197892
  H   1.71767812253180      0.98140022058985      0.67616806319692
  H   1.77477643880180      3.39071693438767      0.00014800338788
  H   -0.01121126530952      3.31899821498791     -0.21894799841560
  H   -0.47365585595122      1.98503097596024      2.17771872930878
  H   1.14615685209852      2.41172059127913      3.73366352089598
  H   1.62572025892889      3.20316940057111      2.23625328181146
  H   2.76223488175602      0.65262756340409      3.45352561220769
  H   3.45420140545479      2.25858269067514      3.45108871726502
