26
Coordinates from ORCA-job 7477optt
  Br  1.86553685445126      0.73567848159330     -1.51808864735674
  C   3.31452814759063      0.22147606238474     -0.38336978862497
  C   3.76789722037368     -1.02788820192441     -0.35954010501315
  C   3.15187944610641     -2.14194922286630     -1.18567588077502
  N   3.91207384492577     -3.38791674693673     -1.16508865821778
  C   5.21409156887715     -3.27035057114713     -1.84824151814021
  C   6.26258669363526     -2.82472303334410     -0.79464249396798
  C   5.39769893890904     -2.61870912241979      0.47557994318944
  C   4.27163159679590     -3.64544583464776      0.21668686452048
  C   6.07716974687909     -3.01178323367564      1.71895212038944
  N   6.56515836460858     -3.48006533635764      2.64554859045360
  N   4.83232006721437     -1.28276733642018      0.54707144834544
  C   5.77972637204137     -0.17304849982840      0.71812215972480
  N   7.05033393179245     -0.32721125135894      1.01663985015439
  C   5.24633048703636      1.14107104913845      0.60206620827216
  O   5.79623958562193      2.21799861639638      0.73098042344116
  O   3.80085401226896      1.20980816827011      0.35608402156723
  H   3.03325844335137     -1.81399946972957     -2.21809395633877
  H   2.14817370551647     -2.36070623790541     -0.81016942310585
  H   5.12943442104702     -2.56468448685998     -2.67354058143665
  H   5.48088149948528     -4.24468745766873     -2.26064751420951
  H   6.76656340653692     -1.89494996817135     -1.04975051730665
  H   7.01581447801727     -3.59589570382590     -0.63028780725670
  H   3.42593200172315     -3.51216489472670      0.89021131655074
  H   4.67821246299196     -4.65222028061810      0.33192855352899
  H   7.34367270220220     -1.29286548735016      1.08126539161214
