27
Coordinates from ORCA-job 7480optt
  Br  1.21591639465163      0.87991769150691     -0.97949233711432
  C   3.05445043750855      0.74097759048804     -0.49832450048240
  C   3.64014012699560      1.57540548732445      0.36085374933283
  C   2.98677796626282      2.75965385525838      1.01855297047540
  N   3.86098256049883      3.94920036599258      1.05002871305377
  C   5.09378847844253      3.56173088327033      1.75882672033170
  C   5.76533412092140      2.60591263038850      0.77681894510587
  C   5.63575769746304      3.38424108968436     -0.54727502802230
  C   4.39938322971587      4.28894677686537     -0.28546735673616
  C   3.36326680124126      4.30590173980609     -1.37926712233102
  O   3.63779670013824      4.28432757579105     -2.54782862554706
  N   4.98228833895330      1.36435203759839      0.73243095888376
  C   5.67929969831229      0.26345170660065      0.10719189364174
  O   6.89302042402571      0.10644015101501      0.37709546407868
  C   4.96084926197679     -0.61816547394139     -0.74969125596126
  N   5.39194656975278     -1.70531342515318     -1.30039527824565
  O   3.60465413330568     -0.33003877136114     -1.06956084376038
  H   2.75738835193024      2.52385598965432      2.06163614460316
  H   2.04770018673080      2.99877063302854      0.52810524161826
  H   4.86217779681061      3.09833816937869      2.71697794427429
  H   5.70763951124465      4.45217784306538      1.92100631477932
  H   6.78433331349380      2.32494104789680      1.02509768710751
  H   5.47678228499368      2.70461219033532     -1.38612297737312
  H   6.52158079473461      3.98220528995846     -0.75606225582327
  H   4.73156934337345      5.33346766281776     -0.22094507645258
  H   2.31102818324923      4.41314500697278     -1.05359680846872
  H   6.35814729327249     -1.80745574424250     -0.99459328096806
