27
Coordinates from ORCA-job 7482optt
  Br  1.20718189413141      0.13248930823119     -0.82946518206643
  C   3.11913945702146      0.12282533513229     -0.59514004454171
  C   3.76212140749024     -1.00494666550058     -0.00277770679087
  C   2.68099814623643     -1.97536694160773      0.70076848969724
  N   3.10046023733211     -3.04733390059442      1.66984145602094
  C   3.26748186416413     -4.48699336651668      1.26365726751829
  C   4.81262052482501     -4.73124804775494      0.86604577517827
  C   5.04193718842119     -3.24652963056151      0.48718550556320
  C   4.47412473153629     -2.71009469633141      1.84449200318848
  N   6.04135432096266     -2.25558464377410      0.19258842824935
  C   5.22137451844740     -1.05566460679681     -0.13501427334704
  N   6.00128269012700     -0.13037481489908     -0.61439125423079
  S   5.46815649990422      1.39894449112352     -0.95421683584534
  C   3.70335792281791      1.30287023281831     -1.12026031330693
  N   3.07253069779134      2.30073372206368     -1.64820906443167
  C   4.22699562823358     -3.31280899315766     -0.79635487691646
  N   3.84606333255940     -3.63872757274462     -1.83276937352754
  H   2.04221520440391     -2.40412722370316     -0.07034457585711
  H   2.06097378255350     -1.30041596422845      1.28671467528306
  H   2.61039087631150     -4.74672280736653      0.43525426194192
  H   3.01063271155562     -5.10183394340340      2.12600247967829
  H   4.90705895389410     -5.43531988610365      0.04390204620137
  H   5.40169842652698     -5.06439308442165      1.71822784309622
  H   4.63801060735637     -1.65802132128034      2.03292574752262
  H   4.96313020335727     -3.27627864117561      2.64106469729369
  H   6.62862595475588     -2.43404788962878     -0.61513096066650
  H   3.73408221728305      3.00997155218216     -1.95859621490458
