26
Coordinates from ORCA-job 7488optt
  Br  3.06482044216964     -0.86066782614013     -2.95940049917067
  C   3.54596436715922     -0.36292801105230     -1.20378213581182
  C   3.45189609264652      0.95081451090533     -0.75877242202000
  C   3.02403282521763      2.17800723705602     -1.49812091034921
  N   3.22081144066582      3.23143651394107     -0.51888063427541
  C   2.58474295026088      4.51902929356249     -0.66192511191253
  C   2.33074337909731      5.10960493413970      0.71548569603685
  C   3.55592495000350      4.83446183397333      1.61776975085828
  N   3.79238790419468      3.42033147131137      1.78152943842565
  C   3.61798316469522      2.72685832462737      0.71538161344769
  C   3.79659712714363      1.28407774421079      0.54071258621777
  N   4.22924417775931      0.43075268999328      1.47834691185484
  N   4.27640551806640     -0.85644292692944      0.98649868119662
  C   3.98069872755176     -1.36190175367562     -0.27883781140764
  O   4.11075295051162     -2.56943702943529     -0.48070081916782
  C   2.02644979119670      6.57160244710253      0.68964696101952
  O   2.10411933441012      7.29317717468421     -0.27050110825169
  H   1.97240754923228      2.12029888182057     -1.80933039126162
  H   3.62188920818753      2.34630219553887     -2.40098546684480
  H   1.63857348198359      4.40640867534003     -1.20328619574913
  H   3.20361374057195      5.20927272148072     -1.24378451920805
  H   1.48588075361990      4.60807013032376      1.20223916949582
  H   3.40394109898430      5.28786022869882      2.60066031603984
  H   4.42671766811404      5.33131830934442      1.16359423392419
  H   4.58932687775010     -1.54990517138852      1.64516809271494
  H   1.72907447880627      6.99359740056655      1.67227457419837
