28
Coordinates from ORCA-job 7496optt
  Br  11.08755013297917     -2.04756572727073     -2.80877850757297
  C   9.20373037589423     -2.05955881764285     -3.10770708627260
  C   8.36956102895718     -2.64442788436772     -2.20564227952461
  C   8.69935205401795     -3.30249210300756     -0.88626135245448
  N   7.38497201505230     -3.48657051868948     -0.29621407708381
  C   7.00087514140827     -4.64047701933053      0.48749139976972
  C   5.47295975356577     -4.60214351656003      0.26601629443856
  N   5.28656816204230     -4.03009016081046     -1.06761762955665
  C   6.40649962334895     -3.42747364942138     -1.33434241866254
  C   6.98315078100014     -2.78002716547767     -2.45785402204911
  C   6.45760915618059     -2.32880943007065     -3.70468020734783
  C   7.32632745731154     -1.73365307020811     -4.61376861829844
  C   8.68393988167248     -1.57676793656617     -4.35216365718694
  O   9.57784854369233     -0.90916679429117     -5.16083021669705
  C   9.10917667225318     -0.48403020634485     -6.39884406476732
  C   10.26890306215535      0.15862968786095     -7.10415637993484
  O   10.19607429465915      0.64050896607020     -8.20668965559118
  H   9.35982207063484     -2.69495072340889     -0.26461736037025
  H   9.19919535087327     -4.26909805758361     -1.06621407003559
  H   7.29233183232764     -4.55505893584486      1.53593444377609
  H   7.43302502295944     -5.56635570041301      0.07035967669321
  H   5.00565334380730     -3.96641393636668      1.03267993052247
  H   5.01842631686607     -5.59297328422323      0.34155021945358
  H   5.41209998783629     -2.45856728861751     -3.94433540415330
  H   6.92395631887135     -1.37173151723844     -5.55205219812528
  H   8.28881054416770      0.24445372785638     -6.30469571119570
  H   8.72856032569336     -1.32456137044829     -7.00129590820106
  H   11.21102074977166      0.15437243241641     -6.52527113957198
