27
Coordinates from ORCA-job 7500optt
  Br  0.96039394909021      0.10394329674658     -0.12661254519434
  C   2.86891765378990     -0.01596953306169     -0.28316900200033
  C   3.65836713948252      1.11825421056383     -0.27123026717609
  C   2.94280477801234      2.46305182704467     -0.12733135785348
  N   3.73470192182049      3.68969322835716     -0.13620748365344
  C   4.43466327968887      3.89858583639082     -1.39975040472829
  C   5.72391390736326      3.03640976686461     -1.52907060381310
  N   5.91496445504346      2.16452962377541     -0.37677404872814
  C   5.81537862297654      2.84884508709733      0.89212826831910
  C   5.95668347722335      4.34383134500697      0.96150517257471
  C   4.59666098912726      3.71306453100588      1.02502511626234
  C   5.05355856711673      0.99746909843790     -0.41594599381716
  C   5.74384495608788     -0.21371594111089     -0.64683392440794
  C   5.21301257731975     -1.49966110488289     -0.74094019422751
  O   5.77943876519954     -2.56715405465373     -0.96112298762253
  S   3.39240657277166     -1.66753241583249     -0.47578220046492
  H   2.36893562847118      2.45497498639632      0.80396783180016
  H   2.20428389564991      2.54895574526226     -0.92877109823184
  H   4.67376133608432      4.96161336324005     -1.49375208236355
  H   3.72835379555713      3.66030573704542     -2.19609244231208
  H   6.60352096925809      3.67768509933092     -1.64186144095452
  H   5.68098450635380      2.39307365732474     -2.40688733900582
  H   6.17298588511499      2.26050546562087      1.72739528289842
  H   6.25222586983736      4.90589786908326      0.08854249961821
  H   6.33814415313237      4.74565210333320      1.89015911030772
  H   4.05190657419016      3.76906434200776      1.95999786034634
  H   6.81818577423687     -0.14937317039428     -0.76758572557193
