29
Coordinates from ORCA-job 7505optt
  Br  1.17600095627061      0.00510833822527     -0.91765178516850
  C   3.07963483272803     -0.03114325692617     -0.42747503696780
  C   3.63713791949726     -1.23531184489628     -0.09524249714517
  C   2.89593127650070     -2.52908885208566      0.01411811436097
  N   3.74691390611937     -3.69097915728507     -0.28118986208255
  C   2.99401265517240     -4.92612090750786     -0.13804327114296
  C   3.84470443365480     -6.10971629894606     -0.54747837813189
  O   5.03450013924695     -6.16617343682570      0.21389093275896
  C   5.77238977326165     -4.97750706434698      0.07178925905772
  C   4.98412876927502     -3.72809831488579      0.49069583417810
  C   5.81485706921937     -2.47152392664875      0.20600233101930
  C   5.01363957133984     -1.21794372373387      0.32790100466218
  C   5.62955265419077      0.05992281591558      0.37604871638541
  C   4.92966045200092      1.18216630646067      0.03641835746261
  N   3.62969381913513      1.17666723437194     -0.41093158083698
  C   4.71185455342635     -3.83665227501398      1.95574363849140
  N   4.50939525524202     -3.99330147115648      3.07462673055168
  H   2.05742260110003     -2.56254808814192     -0.67939544856005
  H   2.48431314631695     -2.63434775958991      1.03645045628143
  H   2.11371151095378     -4.86645467298454     -0.78185493990413
  H   2.64548350579113     -5.06670188012029      0.89887918873888
  H   3.31727175081391     -7.04764931861965     -0.37358217454245
  H   4.09465674175577     -6.02996609937236     -1.61394240396406
  H   6.06078047385208     -4.83527715772799     -0.97652259294905
  H   6.66591799213774     -5.07472500222043      0.68817070414470
  H   6.20169953977864     -2.60724325651096     -0.82160556327694
  H   6.68091723137703     -2.45618077515570      0.87496691907029
  H   6.66201966967041      0.15548151711915      0.69972357274620
  H   5.38879780017123      2.16230832860991      0.11548977476269
