26
Coordinates from ORCA-job 7506optt
  Br  1.60151293427205     -0.82514004905467     -0.16063884777373
  C   3.36147218194223     -0.19417731866435      0.20850840932897
  C   3.66255456150963      1.11946023412088      0.28847545544281
  C   2.58724451329714      2.23273755481182      0.35788185880275
  N   2.78575155308460      3.52716095583160     -0.33085212125884
  C   2.66407338020931      3.48432547288367     -1.81785056942058
  C   3.86493450770228      4.14624298002702     -2.56482063320850
  O   5.18385940421014      3.69053062190381     -2.18203620345005
  C   4.96535404673992      2.97482315492854     -0.98616527690293
  C   4.16815636868824      3.88470484980083     -0.04574792571682
  C   5.91734036066221      2.13717094383297     -0.16919310219448
  O   7.11761422949882      2.18852317752042     -0.06493521963224
  N   5.06401235576975      1.30927296251364      0.55653609386643
  N   5.67032332440804      0.44416110577545      1.53390711375765
  N   5.30039562132537     -0.76825327112303      1.46775955114019
  C   4.32377012474503     -1.22887681497774      0.60721078024716
  O   4.17507326751420     -2.43486176815217      0.36465686407610
  H   2.46658263063253      2.48510052657053      1.41637367205254
  H   1.65214147417913      1.79599023149961      0.01979794184072
  H   1.77224504722642      4.03698452899716     -2.12454155251898
  H   2.52969067141744      2.45450355964432     -2.16322965136394
  H   3.81959667360819      5.22644050939830     -2.40384065256288
  H   3.75015356791422      3.96248461292113     -3.63449618998597
  H   4.30205628773912      2.17436608648511     -1.30182522876157
  H   4.37925065158455      4.92843468035903     -0.27926450851157
  H   4.38284026011936      3.72289047214606      1.00832994270778
