22
Coordinates from ORCA-job 7507optt
  Br  1.12553061115975     -0.00443126854958     -0.04993498993851
  C   3.01049483997146     -0.01650377254811     -0.04274088080582
  C   3.74053145939421     -1.19793578527255     -0.04214593375824
  C   3.25875962050616     -2.61681941739563     -0.04391458212771
  N   4.51986015120219     -3.36364437025606     -0.04332382547133
  C   5.63479983136654     -2.50943114283024     -0.04074371763211
  C   6.86196842667201     -3.02476262354373     -0.04016331072271
  O   7.05332953777392     -4.39812353295862     -0.04220551897634
  C   6.01233685629582     -5.26522191221662     -0.04458687731923
  N   6.19050007919592     -6.51297434986923     -0.04666765495497
  C   4.58972195777285     -4.71039859711036     -0.04486345556962
  O   3.62158882986617     -5.43850925211734     -0.04639350991261
  C   5.12972387962812     -1.15247403323499     -0.03948568278344
  N   5.88618558238847     -0.05237316644178     -0.03665650931766
  N   5.10582671317933      1.08368138057673     -0.03634489674018
  C   3.72073422016392      1.22869830982785     -0.03960616211217
  O   3.24307746946278      2.36128210479316     -0.03865268482552
  H   2.66593427001839     -2.87674455809345     -0.92491083147613
  H   2.66438051802927     -2.87810309419619      0.83567294617984
  H   7.77585761155282     -2.45901937274250     -0.03845537771352
  H   7.19117717067189     -6.71095228724721     -0.04635860945660
  H   5.61468036372796      1.95176074142646     -0.03351793456542
