23
Coordinates from ORCA-job 7508optt
  Br  1.91769112001472      0.68256975188709     -1.17052081150594
  C   3.33080656813313      0.04422426782551     -0.09043282104759
  C   3.66522748409695     -1.32078246179624     -0.05322155434887
  C   2.90900312347137     -2.41943471580007     -0.70375192276333
  N   3.77817984979596     -3.56668625602052     -0.95874936700503
  C   3.06075988025324     -4.71533966323269     -1.47482506197627
  C   3.96383190735868     -5.87639022016483     -1.82190929205662
  O   3.54500903031910     -6.84696689053579     -2.39902608241512
  C   5.39708417507420     -5.70900882774003     -1.38478965129327
  N   5.58838461367357     -4.87807843924827     -0.22196313297072
  C   4.84542037974162     -3.85005651635297     -0.12822551351995
  O   5.11986603462662     -2.98819011760856      0.86997846105680
  C   4.74321726687242     -1.65696081416845      0.75156941237974
  N   5.48949789986845     -0.86826162175178      1.46660953900343
  O   5.10712563799576      0.48166284431204      1.42946016762594
  C   4.06339056132164      0.99303530643999      0.65934280107925
  O   3.90040880264122      2.19476085262935      0.72624052863412
  H   2.49662129266684     -2.08916377365665     -1.66015585023925
  H   2.05236181596289     -2.74440332154175     -0.08675296270934
  H   2.50214193986904     -4.42896025071071     -2.36808052950600
  H   2.32911640022524     -5.08621738260503     -0.74116260000790
  H   5.91311322658393     -5.26272415614832     -2.24980900843087
  H   5.83174098943326     -6.69662759401121     -1.23282474798320
