23
Coordinates from ORCA-job 7509optt
  Br  1.10451420997780     -0.05569634939160     -0.15430947222042
  C   3.01418782276509     -0.00203842604898      0.02726812224549
  C   3.72825074185740     -1.23173113123937     -0.04290862047711
  C   2.93703771632616     -2.50680486149900     -0.17985751979908
  N   3.79281728848626     -3.67721619595101     -0.05397487543703
  C   5.14369124410898     -3.66346793109147     -0.08427291129839
  N   5.81124436103637     -2.48110497539314     -0.25916620083280
  C   5.13106321197682     -1.24732788655421     -0.04950322709061
  C   5.92115809304425     -0.13583912546838      0.09496350395289
  S   5.31206770376738      1.46628506025960      0.36576463677602
  C   3.50577898652526      1.30257411705473      0.18460512000112
  O   2.89360488720911      2.36403417947768      0.23527433701076
  C   5.54872560523128     -4.97923060422422      0.05145796705491
  N   4.45756820100138     -5.78614303942521      0.16218699285631
  C   3.41190760821309     -4.99186890019821      0.09298780384795
  C   2.04794794148594     -5.37009210264792      0.16358373551487
  C   0.88236571887554     -5.65494693616702      0.22010292928633
  H   2.41519764355402     -2.55431251700121     -1.14272850328982
  H   2.16597579798496     -2.57276979071791      0.59040025823785
  H   6.76764799839231     -2.48544945763035      0.05489618994160
  H   6.99794877720075     -0.21208999217258      0.01847983419769
  H   6.55493178266967     -5.36278225833711      0.07314771099709
  H   -0.14763334168990     -5.91098087563309      0.27060218852438
