22
Coordinates from ORCA-job 7511optt
  Br  1.29828551059003     -0.75820616691391      0.29199261603166
  C   3.13993249973238     -0.43860548313815      0.04718915715287
  C   4.04696135997473     -1.46943681167734     -0.01687993760286
  C   3.82033000385195     -2.95526281626763      0.04096064282944
  N   5.16228661597967     -3.46125546294642     -0.22395469319454
  C   6.10688397396920     -2.44352057377979     -0.29215699514806
  N   7.36223263830997     -2.87817461930117     -0.29205808262414
  C   7.18583382678352     -4.20506943865865     -0.11047743192896
  C   5.89489271840020     -4.58887808181716      0.00722819411496
  O   5.74827415916110     -5.93062948716026     -0.29564870087543
  C   7.09264392771234     -6.36582287129088     -0.06085715743139
  O   7.97684388737459     -5.30046717068683     -0.38521115788499
  C   5.40731946432671     -1.17641946569287     -0.19085088902910
  N   5.95220007563570      0.02663257779382     -0.27863941701910
  O   4.99222465978001      1.07112983172619     -0.15128989104653
  C   3.62615769358974      0.90675110222884     -0.02797645852989
  N   2.89648214661842      1.95482651985230      0.02378240915864
  H   3.10908559057394     -3.30029973180830     -0.71224632686259
  H   3.47214120857115     -3.28599845558554      1.02170845089487
  H   7.19274050726245     -6.58397404695101      1.01078412648118
  H   7.31080826091543     -7.22653908329264     -0.68593514636991
  H   3.49743927088663      2.77321973536744     -0.04946331111612
