24
Coordinates from ORCA-job 7513optt
  Br  1.03387101768059     -0.11867453198076     -0.33821949893876
  C   2.89857360124323     -0.22133772814409      0.01582915974670
  C   3.56267645561815     -1.37370054931563     -0.17352980179059
  C   2.97203561940035     -2.65490063634514     -0.69151565567470
  N   3.65354460010402     -3.78732896380915     -0.07637668051650
  C   3.19306803579667     -4.98141722394973      0.35927102737758
  N   4.15747793280581     -5.72576111834112      0.84789000443336
  C   5.29595233832730     -4.97416682296834      0.72523084980596
  C   4.99716117384446     -3.76827044777817      0.15371411197947
  C   5.72102924727830     -2.52074251670519     -0.22837741613602
  C   5.99425339451661     -2.53095777399434     -1.70285972296151
  N   6.16134551458352     -2.59317368050858     -2.83581015804597
  N   4.94214795882913     -1.37641153970678      0.18396224241101
  N   5.67772615218046     -0.19165061211711     -0.10018946764651
  C   4.98022947631341      0.90331237633127      0.11390590832003
  C   3.58532521667473      1.01320855732670      0.37767922968924
  N   2.91011821861260      2.10083536916411      0.73358343141054
  H   3.08813945035602     -2.73176119768646     -1.77838695329020
  H   1.91239537213126     -2.70297177470480     -0.45498298010338
  H   2.14888466286459     -5.24669327338752      0.30590371261935
  H   6.25536085177947     -5.33394676610910      1.05831554554320
  H   6.68696588838630     -2.45745023234977      0.27169110851577
  H   5.54894881485493      1.82345491334335      0.00328713610533
  H   3.57776900581791      2.85450617373642      0.89198486714660
