27
Coordinates from ORCA-job 7517optt
  Br  0.62063666941289      0.23174281555222      0.10857879129484
  C   3.12725111145336      0.00930365980127     -0.28758493055147
  C   3.75046030411257     -1.20840929972233     -0.28838594193844
  C   2.94682892770505     -2.45373175248070     -0.58686244392999
  N   3.75922057089446     -3.65785387763063     -0.51195044008601
  C   4.00600540701323     -4.51838743514911     -1.53081697173665
  N   4.96890184898106     -5.35355730440444     -1.39916582837799
  C   5.50795656769765     -5.09484721451506     -0.04443610797380
  C   5.12262220017648     -6.16927818635480      0.87726435970904
  C   4.80520247375812     -7.03227218839877      1.64546500597771
  C   4.91842994291413     -3.72190095927098      0.37337778416853
  C   5.85167608861571     -2.56174753613159      0.04583880630955
  C   5.12054142111137     -1.24025617810718      0.07125918805238
  C   5.78663637045609     -0.09392193074832      0.42587428685862
  C   5.14134058339181      1.18632431950461      0.43618816311747
  O   5.63874195936951      2.26997543162396      0.73484231374081
  N   3.79589219976553      1.11703758960866      0.05065229634396
  H   2.50356705673572     -2.40269494012896     -1.58323314730870
  H   2.11452707617833     -2.51471075225636      0.11945557958830
  H   3.37704856149859     -4.48407579704679     -2.41458625494139
  H   6.59908622936399     -5.04943364677837     -0.08128534047586
  H   4.51545060468648     -7.80051798329339      2.32037515047907
  H   4.61459378377244     -3.69921350364440      1.42048765564360
  H   6.25230350015374     -2.73244052647956     -0.96009371425040
  H   6.69730086628576     -2.54251713664623      0.73680191264852
  H   6.82906650623047     -0.11653467915787      0.71471578954606
  H   3.29371116826529      1.99691901225524      0.07022403809225
