17
Coordinates from ORCA-job 751optt
  C   2.03838840927272     -0.31165415063258     -0.77836578863430
  O   3.31576075791690      0.22994476186708     -0.67411171535648
  C   3.46183060897429      1.40060430499299      0.08944360571511
  C   2.39922945082865      1.90171868165608      0.82171242630016
  C   4.76945697034981      1.93246286335869      0.00775454992296
  C   5.74742023632232      1.24730422041473     -0.91514683357335
  C   5.20279566293523      3.03796518851871      0.73729340439774
  H   2.10989428404730     -1.16416655251805     -1.45679266095939
  H   1.32084603092964      0.41295940964693     -1.18187866880408
  H   1.65904030780890     -0.66027179642570      0.19002120730849
  H   1.42759482612484      1.43581506470649      0.86029296046589
  H   2.52901840803837      2.82314726953407      1.36717700732502
  H   5.98993625603763      0.23034106426955     -0.58415815281886
  H   6.67747180368750      1.81814045459226     -0.95492632797522
  H   5.35951306923278      1.15255643185476     -1.93431976235768
  H   4.56909836491081      3.54558678765839      1.45162524136502
  H   6.21370455258228      3.40854599650558      0.61837950767896
