23
Coordinates from ORCA-job 7520optt
  Br  1.08893257144491      0.10160211083318      0.07648978203869
  C   3.00668169856118      0.11057378189524      0.01862135435385
  C   3.67339771608137      1.31771146641302      0.00040453191425
  C   2.90768589774823      2.61926263446666      0.00975858166180
  N   3.81685985906662      3.73086501231784      0.00506572877272
  C   3.42505319812011      5.04730162178549      0.02774020465964
  N   2.24728380764333      5.56357126941594      0.04637463907084
  N   4.59748928081584      5.76097135411084      0.02716185989799
  C   5.74797835874309      4.94179721950984      0.00463393465253
  O   6.89269759756912      5.37634441015366      0.00202057037555
  C   5.21496180505881      3.60357063888509     -0.01132797056257
  N   5.85497448567728      2.45050259984813     -0.03667573555635
  C   5.10834024961580      1.33022469842096     -0.03364283029139
  C   5.73287808327977      0.05323362135683     -0.06257995225738
  Br  7.62626322850870     -0.02581304195543     -0.13455238601951
  C   5.03055683573049     -1.12826987158160     -0.04490184597778
  C   3.63796346816272     -1.12498097345800     -0.00083560790786
  H   2.25926996437689      2.66802462470523      0.89352648421722
  H   2.24555244425312      2.67040958339405     -0.86413921622034
  H   1.54144663337132      4.83412792558936      0.04061011664420
  H   4.62411677998035      6.76437174660864      0.04236755861280
  H   5.56977714148834     -2.06595003903607     -0.06615663416684
  H   3.06983889470256     -2.04245239367893      0.01503683208795
