23
Coordinates from ORCA-job 7521optt
  Br  1.76502688790288     -1.19054982684744      0.72577840574711
  C   3.44565347425762     -0.77377961823243     -0.10531627292365
  C   4.16764557125831     -1.77480409840062     -0.73451885741641
  C   4.30774156861263     -3.30132538570174     -0.62261566768621
  N   5.77961232523682     -3.50814729787780     -0.78583908846184
  C   6.60721788398002     -3.67114526649343      0.32327441656017
  O   6.36284941615286     -4.36266487647157      1.28428946147366
  C   7.87536019010972     -2.79430809606492      0.11808969306919
  C   7.55431791986254     -1.90831460339425     -1.08081799477747
  C   6.28564571928465     -2.36561533481315     -1.50449672213995
  C   5.36474735511608     -1.34715493049305     -1.31741524783100
  C   6.04471086044751     -0.20628367557294     -0.87787127426951
  O   7.38345260705307     -0.47128370779263     -0.82977666900982
  C   5.31620957534133      0.80533823504805     -0.26699141736892
  C   3.93979935907123      0.52051225402502      0.01637858100362
  C   5.91350409939545      1.99623719443827      0.23540612535419
  C   6.39626697370722      3.01188206187607      0.66267918103745
  H   3.79073904584073     -3.82142164012167     -1.43309711826476
  H   3.97795120070841     -3.71275633170007      0.33141246282225
  H   8.74573430546370     -3.44317887530507      0.00258525350428
  H   8.02284170361567     -2.20708064518509      1.02700316661567
  H   3.32563530840529      1.29803954562031      0.44698717381582
  H   6.83033664917615      3.90480491946020      1.03987240914613
