21
Coordinates from ORCA-job 7522optt
  Br  1.04666340312225     -0.12315290693493      0.06899940927954
  C   2.92854428900098     -0.07503394189640      0.08650061346441
  C   3.67224779372779     -1.21605968863917      0.09433341669089
  C   3.23201018846849     -2.65585126273349      0.09556833410591
  N   4.51538310075069     -3.33293082795831      0.10072217312797
  C   4.90087852645397     -4.64958308161100      0.10237779726776
  O   4.19416646560686     -5.64350115654578      0.10135338604784
  N   6.27404747388966     -4.57519927197030      0.10560796711040
  C   6.72289052114415     -3.22952967144497      0.10658325459010
  C   8.08663756870715     -2.90566743316991      0.10817880196245
  N   9.22413515768797     -2.71236371722056      0.10977774241868
  C   5.59059041445839     -2.45886601140917      0.10349514625042
  C   5.08136946882951     -1.12060564626883      0.10101432239195
  N   5.79926848090958     -0.00285965008872      0.10223581593053
  O   4.99127662896529      1.16318394120818      0.09984467124715
  C   3.61322460224287      1.19387440483182      0.09007534057045
  N   3.03217973956996      2.32723860914323      0.08587095019818
  H   2.64838419088123     -2.91923353011802     -0.78928577850485
  H   2.64342977074023     -2.91572297339549      0.97824831918944
  H   6.86072432031218     -5.38910102882423      0.10840122578951
  H   3.73894789453077      3.05996484504607      0.09009709087127
