22
Coordinates from ORCA-job 7524optt
  Br  0.96152544976289     -0.47045607420992     -0.02033985873013
  C   2.84712739865557     -0.25859466575734      0.00043391188621
  C   3.65843119434708     -1.33756764372650     -0.01844986779948
  C   3.19028984106291     -2.77218210338158     -0.03782298401858
  N   4.45473777059142     -3.47858328510165     -0.01425926786152
  C   4.65361406834605     -4.81268030591071      0.06545860569701
  O   3.80589790261534     -5.67985278455359      0.06578327873303
  S   6.42079621383088     -5.05186395799196      0.17350057462440
  C   6.72542512960174     -3.33062321521743      0.12379622385044
  C   5.56738724741586     -2.62797044593131      0.02443450320263
  C   5.08401849187959     -1.26615824023820     -0.01305398121385
  C   5.82971382081645     -0.05680036112685     -0.01181540925603
  C   7.24712526107348     -0.09251794834046     -0.16273184445121
  O   8.04346310319530      0.85089901721043     -0.09938259710531
  C   5.18684500243178      1.24881399893413      0.11094276125398
  N   5.72322180062690      2.39432648940595      0.21776099903818
  S   3.38299900948787      1.38828687189519      0.06983731327937
  H   2.61667608523396     -3.02118012093271     -0.93347044014413
  H   2.58458648309206     -3.03589520655840      0.83236643630226
  H   7.72996503527252     -2.96331352293664      0.20702368827855
  H   7.64990790218293     -1.08969329116423     -0.39564240598068
  H   6.73824578847733      2.28060679563382      0.20963036041486
