25
Coordinates from ORCA-job 7527optt
  Br  0.88413547305212     -0.34043526863262     -1.82453995857545
  C   2.73860544055414     -0.06167091650878     -0.15891924824323
  C   3.35112501628908      1.18616541408275     -0.26268749354021
  C   2.45160696875927      2.36456392152895     -0.56458749159433
  N   2.85955813787208      3.61404056782691      0.05856287098553
  N   2.03047306363765      4.35307143459544      0.80633186764361
  C   2.72214036503857      5.44042979638990      1.11262590321191
  C   4.01730411590944      5.41712809732860      0.56305309514705
  C   4.04872141786256      4.21540195303031     -0.11029406804968
  O   5.00124987776768      3.62451957181566     -0.85658638151804
  C   5.59723792357762      2.48914723719572     -0.23176640962124
  C   4.73604931627921      1.24545266146650     -0.12885417297731
  N   5.49117335740732      0.16980745195260      0.13707818798095
  C   4.89156529160525     -1.00109687061701      0.25977448340690
  C   3.51431344270755     -1.18477558342816      0.10977731474699
  C   2.96138372618556     -2.49695952993541      0.25433346350677
  C   2.53512286422887     -3.61177858617095      0.38549317092715
  H   1.45020195910969      2.14777481287342     -0.20592727808230
  H   2.38381255290275      2.51039730701459     -1.64528147875018
  H   2.26610049372563      6.20364903401581      1.72362095617150
  H   4.80633966879991      6.14376267966280      0.63903246543475
  H   5.94460787550292      2.77496077870031      0.76678592881584
  H   6.46620701894133      2.23844916181103     -0.83643173590894
  H   5.52467461051814     -1.85462157519690      0.48617815901389
  H   2.12429002176531     -4.58638355080163      0.48322784986806
