25
Coordinates from ORCA-job 7529optt
  Br  1.24103552123894     -0.15141891502721     -0.93381885018128
  C   3.11683220978795     -0.14178815616924     -0.42539662400518
  C   3.64994411221971     -1.26316217754098      0.13335167797272
  C   2.93395751838958     -2.49273789764234      0.56861352249588
  N   3.75380245359542     -3.66595616382526      0.25081843020603
  N   3.27826571784459     -4.89360472624308      0.33498433862969
  C   4.31650399471817     -5.68246143908369      0.04380792471286
  C   4.11579555206444     -7.12715860887166      0.05370416832681
  O   4.97502241545564     -7.94821973993041     -0.16341076986251
  C   5.47521923424358     -4.92900991237568     -0.21868433052597
  C   5.06886559617932     -3.62193515650819     -0.06946190850529
  C   5.78063758996793     -2.31464209407134     -0.20333550582997
  N   5.03747061466919     -1.25565623988204      0.48320563939011
  C   5.70559842205852      0.01924060225096      0.46181038020538
  N   6.91432680606868      0.16054016925443      0.92101398538299
  C   4.98598639045031      1.08963184507210     -0.12837340064737
  N   3.73303562067903      1.01028046217472     -0.61727675066527
  H   1.97444547264526     -2.60552831804245      0.07261458507976
  H   2.77783211067093     -2.50795736325314      1.65426345095453
  H   3.07846894877724     -7.42939675650292      0.28882727188266
  H   6.45329655877045     -5.29616126195711     -0.47592072546957
  H   5.89578000204039     -2.06828739512532     -1.27008884326285
  H   6.77734068227230     -2.40972809693551      0.22343574550297
  H   7.22862708508989     -0.70267791196596      1.35732770811958
  H   5.48990937010242      2.04579525220139     -0.18401111990672
