29
Coordinates from ORCA-job 7535optt
  Br  1.11431943905652     -0.30549900945627      0.24931714354424
  C   3.01342683628965     -0.13276197628417      0.09209359950860
  C   3.59198076739665      1.10757562773601      0.37428599707217
  C   2.95455746437701      2.47620344073619      0.38912258962293
  N   4.05657979788120      3.38879665155442     -0.03483606593702
  C   5.33933853530114      2.72726149823371      0.23902751588816
  C   6.07968352092209      3.26523807187090      1.47509360231376
  C   6.95222430166574      4.45730664226809      1.12259166725873
  O   7.92365720136056      4.09372891023401      0.16139594977718
  C   7.32486738613487      3.73238100732905     -1.07226767426091
  C   6.33014348556201      2.59689712980718     -0.95121798197017
  N   6.95768044354809      1.26071837118388     -0.78303424342906
  C   5.96984861294924      0.46683573899907     -0.07775410236749
  S   5.55282438115796     -1.18344426834075     -0.48658474796003
  C   3.72651379915883     -1.29903513411964     -0.28217499927632
  N   3.20577901539680     -2.45411856811442     -0.52188573829850
  C   4.95596385403176      1.28885373380202      0.36138621916212
  H   2.55691103771166      2.74628650272094      1.37829794243678
  H   2.12346553768145      2.52872638256321     -0.31712499288203
  H   3.99038043611127      4.28081215960507      0.44031209644074
  H   6.72466127731212      2.47536545359020      1.86856781403223
  H   5.35493189219182      3.51805047911090      2.25456157706240
  H   7.50125091490995      4.82517627111139      1.99064545586803
  H   6.34240389472015      5.28599250215760      0.72849165654465
  H   8.14166503665632      3.46487522080847     -1.74497270365844
  H   6.80379571478518      4.60764718362045     -1.48583066949529
  H   5.72356180106659      2.56579874700805     -1.86071789538814
  H   7.82059936947324      1.34425745130314     -0.25337630164502
  H   3.91798424519002     -3.13092622103875     -0.78341270996429
