19
Coordinates from ORCA-job 7541optt
  Br  1.53880296442581      0.50858575305914     -1.22289551821947
  C   2.79998280001836      0.15293644360873      0.16100101200855
  C   3.45368396008894     -1.11240656465212      0.20953466464005
  C   3.59601400717738     -2.27028015511000     -0.65675004815509
  N   4.79404286210802     -2.83679173591709     -0.57067568873181
  C   5.49911780190851     -2.10651676130501      0.37536188320423
  C   4.65372861385979     -1.14876063334330      0.91780214400218
  C   5.35268004710609      0.04802697462150      1.19179611918134
  C   4.84467001618327      1.20181716130740      0.75881979983084
  O   5.83003599215388      1.98579967741667      0.23946739666493
  C   6.96958371675880      1.15984369932869      0.20753583398633
  C   8.10826652743862      1.72674301543305     -0.40354062383939
  C   9.07610603507035      2.20804398223989     -0.92650331247232
  C   6.69717265132586     -0.06819516838227      0.74283114533830
  C   6.89209253712246     -1.57401055165204      0.33082533161309
  O   7.91028224210145     -2.05203339761638     -0.10012649112190
  O   3.55337765974659      1.36412346649158      0.42915883388016
  H   2.85228694745743     -2.65021366063123     -1.34451164340941
  H   9.93507261794831      2.62528845510280     -1.39213083840061
