22
Coordinates from ORCA-job 7546optt
  Br  1.00280120013270     -0.49225158268072      0.31855640386350
  C   2.66470572104703      0.28888312993972     -0.23233069010480
  C   3.30031861774185      1.18334978538544      0.60762299261084
  C   3.13589150187080      1.64709507229258      1.93700276371369
  N   4.19766525252578      2.35097946633991      2.32839680829994
  C   5.04877648214704      2.37868455963595      1.28340481024636
  C   4.56679600020965      1.70577524642104      0.17202539572550
  C   5.07211305717042      1.37374165673421     -1.10784628963409
  C   4.29858639929795      0.39913649879438     -1.80543997288973
  N   3.14015828408192     -0.11095141586003     -1.39484689374778
  C   6.17648953318761      1.93091654103509     -1.75380055618409
  C   6.76726796651869      3.21589226406640     -1.57831865254816
  O   7.54595963825759      3.69894012527891     -2.39608687397324
  N   6.35546633682108      4.10567286675857     -0.51313981655931
  C   6.76364132492116      3.95873179968334      0.82108640856274
  N   7.51498901769182      4.75336954502600      1.45872420893331
  O   6.31238135504715      2.87598953427173      1.47786055137940
  H   2.30004820377836      1.46125471203523      2.59514023682782
  H   4.64757301463544      0.06248114838855     -2.77615957729365
  H   6.51400336456190      1.45418472237120     -2.66602635094937
  H   6.64284401706610      5.02266893442362     -0.83140733989697
  H   7.89952371128778      5.45545538965879      0.83458243361810
