23
Coordinates from ORCA-job 7552optt
  Br  2.31636294571961      0.05806872984747      1.61574675569410
  C   3.91564204118535     -0.12701128893585      0.47877126901613
  C   4.23889831077979     -1.38214312106663     -0.07454187096123
  C   3.48183434021373     -2.43132008790501     -0.63663454588120
  N   4.25900473573770     -3.40501710095828     -1.12167619287318
  C   5.54132491781353     -3.00911321164984     -0.91408643483654
  C   5.59729848389015     -1.78149499580063     -0.23457314865934
  C   6.61858165634478     -1.01718151525526      0.45502927923488
  N   7.97617033491654     -1.36297585654398      0.79829861756911
  C   9.09981768121159     -2.03308583612806      0.37676272435092
  O   10.12228117557818     -1.93036481677657      1.03354406357920
  C   9.09079213955778     -2.95753001489053     -0.85692689819498
  N   10.07986458245626     -3.70722249169675     -1.08333902977777
  C   7.80608923189960     -2.85522243865569     -1.53309574775273
  C   6.78558868643934     -3.67272647600750     -1.21405253941456
  C   6.21264075732449      0.13970293263227      1.01886540291552
  O   4.94333748635029      0.63389845020670      0.96346808535201
  H   2.40355807404785     -2.48897646161867     -0.68852626291485
  H   8.25179869548082     -0.85783123845117      1.63097793435935
  H   10.77454021039021     -3.53942663353559     -0.34852871719623
  H   7.53790472069524     -1.83640229941502     -1.79885157172780
  H   6.95685914084079     -4.71257767065743     -0.95017652544135
  H   6.86280965112614      0.79095344326205      1.58654535356054
