20
Coordinates from ORCA-job 7553optt
  Br  1.09496559366291      0.27291644749594     -0.05986444819949
  C   2.96576568798053      0.06715727107061     -0.06951924320227
  C   3.59045691796552     -1.13089038507976     -0.07271169655941
  C   5.04154052766930     -1.07424151867694     -0.07764700961951
  N   5.48736380364016     -2.34329596166337     -0.07787169889674
  C   4.41660493855616     -3.24695067649885     -0.07369020750693
  C   3.21468269549024     -2.54353785739522     -0.07146926464269
  C   1.96562107558019     -3.16527552624258     -0.07090251548315
  N   1.75975609500285     -4.50806483370462     -0.07296938307791
  C   2.64491970590806     -5.45477763449236     -0.07449971530658
  O   2.57001461643486     -6.65960129965747     -0.07684360028821
  S   4.58853506658781     -4.95357552106330     -0.07240293299536
  C   5.74538576691558      0.10737850265265     -0.08119681751428
  Br  7.62525335093173      0.08715104222324     -0.08998554503009
  C   5.07150767028360      1.36390805353393     -0.07884609920365
  O   5.55963045863668      2.48736174548490     -0.08150027673502
  N   3.67078742290637      1.23422031881242     -0.07251729723954
  H   6.46061324991016     -2.60059512283870     -0.08010240893522
  H   1.06532929816820     -2.56806197402419     -0.06985878110468
  H   3.17826605776904      2.11477493006368     -0.07060105845927
