18
Coordinates from ORCA-job 7555optt
  Br  2.27768967198303      0.75030516071671      0.31253079489759
  C   3.90175888314293      0.06143090621483     -0.44440876689964
  C   4.36206589792126     -1.21873455132883     -0.10271544565045
  C   3.74289899944114     -2.39152617924682      0.36807491519133
  N   4.62053690654864     -3.39910073667193      0.57457202929738
  C   5.81327413567600     -2.90573367001110      0.22933461183858
  C   5.75375428539592     -1.55125930682613     -0.18272792659092
  C   6.79425422434824     -0.55009337092042     -0.24307111513146
  N   6.57988487245486      0.67665319672717     -0.57995468431978
  S   5.05387518695094      1.21577132296884     -1.02267643994997
  C   8.25401661120297     -0.77262952627279      0.19788044108722
  N   8.77556474445609      0.06947767623466      0.97756873413371
  S   9.22850845468737     -2.15776661816911     -0.46123507481216
  C   7.75993832828929     -3.12073925600375     -0.68600944547501
  N   7.09701406385288     -3.42651871743975      0.36876137495309
  H   2.68805837573939     -2.52213090653152      0.56323242033815
  H   9.74132848866631     -0.17765415227058      1.19424158213982
  H   7.28757786924265     -2.99275127116945     -1.66139800504748
