19
Coordinates from ORCA-job 7557optt
  Br  1.16380934852785      0.35948173525219      1.37006053802123
  C   2.84317260018651      0.10277048837640     -0.06136568641190
  C   3.49789219686864     -1.13224766764017     -0.00536430139787
  C   4.90894595152251     -1.08718851645740      0.08485415993597
  N   5.38054543271198     -2.39432862017048      0.18906213035569
  C   4.30730461287435     -3.23956242196627      0.18488050191218
  C   3.12421837597628     -2.51774971032598      0.05762144909081
  C   2.04946522699125     -3.43861092830848      0.01992818897788
  N   2.35698557765278     -4.72442117032065      0.12867411316490
  S   3.98219536578047     -4.90379665459927      0.26818341153161
  C   0.66355688152085     -3.11246362977496     -0.17878182731187
  N   -0.44474115205746     -2.89543426488406     -0.37902122521777
  N   5.70749241153767     -0.04825213074953      0.09638881435887
  C   5.08077424774098      1.16608505915635     -0.00575753141380
  N   5.64885860635691      2.31873551081508     -0.04121210902496
  N   3.66954638097302      1.16733312058819     -0.09343559811430
  H   6.35214630156187     -2.62549295756739      0.29519927157431
  H   6.65193345303440      2.17393139830531      0.02273331367172
  H   3.26989818023902      2.09421136027114     -0.12364761370272
