19
Coordinates from ORCA-job 7562optt
  Br  1.95458491695195     -0.65057388802828     -1.88680474540887
  C   3.40645884907782      0.50165423538630     -1.53014207057254
  C   3.20706092649479      1.82505485160313     -1.16577720998404
  C   2.21855463048719      2.86845771648015     -0.91139081155032
  N   2.75972184878220      4.03250211840237     -0.58742468763439
  C   4.14273280082304      3.82900024934470     -0.60731656718848
  C   4.38398236431476      2.53418029186103     -0.94605093181795
  N   5.69090541180663      2.14247972482195     -1.03285445269241
  C   6.41211258367712      3.30241549319409     -0.71437580666321
  C   7.69707383978178      3.70037913961426     -0.59542996133535
  S   7.66984611937198      5.36264831890107     -0.16019567906885
  N   6.02698721263007      5.54081448850100     -0.13311742480151
  C   5.46859268590628      4.39431126301464     -0.43979398367030
  C   5.98993107578233      0.84404110939895     -1.39116819968570
  O   7.12010402015298      0.43266993399385     -1.49158500437531
  C   4.73831931586832     -0.05657259945122     -1.65900695906902
  O   4.96433873398472     -1.22037319540631     -1.97594708477337
  H   1.14587945674883      2.75065599014642     -0.96898427292302
  H   8.60281320735716      3.13425475822187     -0.73463414678537
