23
Coordinates from ORCA-job 7567optt
  Br  1.52674937796849      1.35621442697863     -1.87799402981787
  C   3.09394021696118      1.02606020387735     -0.89892357835627
  C   3.82975600047217      2.03555614922130     -0.32244844732064
  C   5.00409960130705      1.62246479941485      0.43230115880622
  N   5.62237845419392      2.75104280271640      0.90703830274123
  C   4.87509471363853      3.88199741334073      0.56910983976537
  C   3.78174096044815      3.45348469742342     -0.22591486205726
  N   2.92995519042471      4.26077403725225     -0.92791803224533
  C   2.83846058690153      5.52398417537169     -0.78507220330529
  C   3.42975363394956      6.48045470326928      0.22221043121896
  N   2.75413432808469      7.53888589226171      0.50250027556950
  N   4.66381059972115      6.32708126090179      0.80807597483021
  C   5.27406646077632      5.16526046840832      0.93326533288738
  N   5.41625183578707      0.42009891401592      0.62509088564897
  N   4.63563987751793     -0.52549566305096      0.02885324209691
  C   3.49852882740247     -0.35511952265877     -0.74911759483172
  N   2.86242100650509     -1.34535825179672     -1.28373283510726
  H   6.33896391064584      2.73085326691246      1.61060493076365
  H   2.14078655374993      6.02296830836926     -1.46063093469855
  H   1.88484617352627      7.53486913580775     -0.02887270578105
  H   6.24382586587161      5.21815309905961      1.43164049040137
  H   4.96087164159361     -1.46505310856638      0.17201382383822
  H   3.31392418255263     -2.22817720852996     -1.05307946504675
