18
Coordinates from ORCA-job 7572optt
  Br  0.61777397676093     -0.18797957929723     -0.53240570364592
  C   2.48497507917903     -0.05793428784196     -0.22045420322865
  C   3.23634340482842     -1.14718368606940     -0.04715045701642
  C   4.70589738314649     -1.06583415616266      0.22667618472505
  N   5.26878402396868     -2.25472538552196      0.39307707273275
  C   4.31980743424481     -3.23528482178503      0.25052919641645
  C   3.00457822131866     -2.56007226145593     -0.03490390067993
  N   1.92467018206340     -3.23636469112405     -0.25513251569757
  N   1.03443475011382     -3.89466005477882     -0.43519246916501
  O   4.46115538225832     -4.43776612285141      0.32669863804409
  N   5.36830283944491      0.07515277368998      0.29407551354000
  C   4.79146954102711      1.25231557584426      0.12984173080554
  S   3.07098515927018      1.57345522873763     -0.18763651669251
  C   5.51088791671962      2.48910847594889      0.19424994629432
  O   4.93966480562347      3.58209919100015      0.03109655552609
  C   6.93548943580386      2.41308277579003      0.46364467169386
  C   8.11484907858631      2.39343532254837      0.68554624007176
  H   9.15793138564193      2.35815570332916      0.88544001627609
