21
Coordinates from ORCA-job 7575optt
  Br  6.89446318101902      4.39927293726885     -2.79859269542251
  C   6.21778019970043      4.41498857235981     -1.03575080648228
  C   6.52292584049152      3.41988529521586     -0.13065547748312
  C   5.96361349130447      3.48387490734524      1.21109197139933
  N   6.30912665696457      2.45246787209046      1.95984609865528
  C   7.12075495382438      1.69154087964066      1.16234785141257
  C   7.28023441283276      2.22753882862685     -0.10500437914212
  O   7.88931516687170      1.65927737764527     -1.19517240877347
  C   9.02291763671657      0.95509893435481     -1.04807267716239
  N   9.72687795825352      0.59111252773153     -2.03448567829263
  N   9.43514329928808      0.67211129129936      0.25675731672499
  N   8.63024339842738     -0.04248923679882      1.21032036939373
  N   7.60458364127056      0.48180721048606      1.64236300505563
  N   5.15909486599306      4.50749874122293      1.62603918124787
  C   4.90245334520200      5.42394955710021      0.75606051976555
  C   5.37558446705813      5.49065120425249     -0.62952270580852
  N   5.04765230785501      6.47418528986962     -1.43950587568928
  H   9.33811609639269      0.98262192325825     -2.88873737285458
  H   10.28664312851849      0.13323344613326      0.17669836035376
  H   4.26282587733828      6.24960127117483      1.06944881438538
  H   4.44465007467735      7.12477116972243     -0.93447341128321
