19
Coordinates from ORCA-job 7576optt
  Br  -0.08419529160777      1.49862965150365      0.81198084399973
  C   1.83767761316109      1.02825586423569      0.32952537319488
  C   2.67479547192143      2.10057244401356     -0.03189712030923
  C   4.09785312145467      1.89848732301934     -0.02565603420666
  N   4.80706963844107      3.04278929285655     -0.22958913004612
  C   3.88279293059923      3.96520223326613     -0.41906731911829
  C   2.54185674433700      3.51015916938982     -0.33495046555275
  S   1.02873077348486      4.16980659957375     -0.96829924546046
  C   0.53261262767399      5.69760635257787     -0.21858756793323
  N   1.18399843829265      6.59819387522180      0.39959406809234
  C   2.54704965359596      6.24646585731436      0.51350933171774
  C   3.28976775582612      6.14608458813457     -0.57760640250554
  O   4.33286722855021      5.25064339463026     -0.60931391328172
  N   4.73876307672537      0.77315201873417      0.23486139865650
  N   5.33939681375908     -0.16985677772668      0.44527859664058
  O   2.11895730779541     -0.13218574377074      0.45781993261369
  H   -0.52517068731619      5.86100787397699     -0.42761476097093
  H   2.88014467170944      5.81918046794353      1.45328045058453
  H   2.98203211159635      6.54580551510533     -1.53726803611505
