25
Coordinates from ORCA-job 7577optt
  Br  1.06976582418545      0.04621463490325     -0.45270930504028
  C   2.86521444752949      0.06875168468237      0.17939004435279
  C   3.62463871729571      1.19713486595262      0.27942267725803
  C   3.38160276962913      2.66538978740201     -0.07202317280266
  N   4.75332471259934      3.17812778778609     -0.33779942985364
  C   5.66796036080528      2.41408543476763      0.52174965386721
  C   7.06176911064984      2.05878516146581     -0.00925331622232
  C   7.94338574406935      1.33663047612250      0.96864012199012
  C   7.16652734150827      0.54435464611379     -0.05386484816385
  C   5.82434358450286      0.00626185687842      0.33279790419073
  C   4.98111419915996      1.09245082974236      0.59017052931363
  C   5.34342469891914     -1.30016728743030      0.14446333837768
  N   5.93440972343455     -2.40328831394285     -0.20295340373094
  S   3.56634358107190     -1.50839449726545      0.51291488387139
  C   2.52786481058690      2.93607682488264     -1.23223128577291
  C   1.85029351036239      3.22426486487218     -2.17789285378503
  H   2.92302241991567      3.17145365088529      0.79290760943222
  H   4.78906229487984      4.17547965431248     -0.15756280127937
  H   5.76951703009587      2.90404422846575      1.50704696038197
  H   7.51458643104676      2.68447064340113     -0.76696121129253
  H   7.60428372481861      1.27283291614782      1.99648124034365
  H   9.01563930606405      1.42679202685687      0.84359694219591
  H   7.72154014540678      0.05141040564457     -0.84306651286929
  H   6.93732930608485     -2.22580559428211     -0.27379361289905
  H   1.24603620537793      3.43664331163510     -3.02547015186345
