21
Coordinates from ORCA-job 7580optt
  Br  1.17988114674634     -0.13256143194112      0.01468388842572
  C   3.07909357386299      0.01480662114304      0.01087216475452
  C   3.72018115516195      1.27070876748228      0.01092808969743
  C   3.06967974047378      2.52595429438372      0.01263891665872
  N   3.69991407411509      3.68505380998014      0.01302095883628
  C   5.03846629327082      3.69030205763138      0.01178252323318
  C   5.80966327893495      4.88799811966047      0.01258153304795
  Br  4.96036051466842      6.57056007812298      0.01602539546513
  C   7.19513904845788      4.81624139621794      0.01114958646879
  N   7.88839068408175      3.69535483425445      0.00899537179482
  N   7.15250057135871      2.56545431663473      0.00827855770495
  C   5.79725832149977      2.49209212080621      0.00962426494774
  C   5.13543166489314      1.24817140255855      0.00907209705734
  C   5.87630488071505     -0.02419607922030      0.00681565629108
  O   7.12649076925231     -0.02815927263307      0.00518613520813
  N   5.16794349103774     -1.18099019633999      0.00643524589074
  C   3.83828396869400     -1.13199490121466      0.00850490317631
  H   1.98703501876200      2.56229600535906      0.01371323833701
  H   7.78790395362670      5.72271016076123      0.01173436439060
  H   7.62657483908791      1.65368982778930      0.00666772982903
  H   3.32450301129866     -2.09049193143636      0.00828937878452
