22
Coordinates from ORCA-job 7585optt
  Br  1.76263231322156     -0.98650269226706     -0.10445464661350
  C   3.38063810615776     -0.22327926768469      0.73758704115896
  C   3.77737065839243      1.07576872069632      0.38776248643431
  C   3.08125934052211      2.28659315419698      0.15141793575405
  N   1.70566585886384      2.45818354334759      0.23873830337984
  C   1.14411783262368      3.64907882855130     -0.30921087850854
  C   -0.20773789442863      4.04767436972342      0.19216932420838
  C   1.01229837693351      4.82832616022022      0.59514980326970
  N   3.90263201885458      3.30158898824881     -0.12273872089914
  C   5.16373368400820      2.79083096971563     -0.09912681600247
  C   6.30407104327759      3.59220509142318     -0.37707812674399
  N   7.22944380358775      4.23768010913223     -0.60851844313280
  C   5.15310068411573      1.42952554886039      0.20921776061396
  N   6.21586641351233      0.56496216982763      0.13606082307568
  N   6.15394235112729     -0.62617005776757      0.44121542887466
  S   4.64347812755298     -1.32019605744108      1.12045872736880
  H   1.18907845520046      1.61318161879227      0.03840575813166
  H   1.38214835261576      3.86741788680870     -1.34662755689963
  H   -0.65657686680847      3.40353918398818      0.93565893550867
  H   -0.89856362308933      4.49297523539426     -0.50986401411374
  H   1.38533187539957      4.69002120303859      1.59936818014523
  H   1.16406908835924      5.80959529319463      0.16940869498990
