24
Coordinates from ORCA-job 7586optt
  Br  1.17469476804075      0.40769285618147     -1.62895781655599
  C   3.07453648480589      0.30217989079362     -1.20199808028349
  C   3.56775732002754     -0.82438623608368     -0.59747353256630
  C   2.67254116594911     -2.02950856707930     -0.36686889005911
  N   3.11066940145249     -2.96383698871662      0.65620404671367
  C   4.14048015373944     -3.88262298875538      0.28240145211948
  C   5.06112591472000     -4.36501225427930      1.35767610648604
  C   5.54911960828078     -3.38715713621895      0.33689029616441
  S   5.84572730948036     -1.70472195389820      0.83258589487403
  O   5.27574613020190     -1.54483396812883      2.15301352685255
  O   7.26363380258104     -1.49967365802922      0.68152878836575
  C   4.99931936744771     -0.77699884255640     -0.37533417865548
  N   5.73927877232933      0.23778230676231     -0.91918425815708
  C   5.10295810801337      1.20292587298819     -1.50339604848864
  N   3.75554522663753      1.36269782689822     -1.61654709470746
  C   2.41995916797032     -2.74463699042147     -1.65172297468457
  N   2.23434662730353     -3.36482228065072     -2.59965275026610
  H   1.70343318301725     -1.64709237949788     -0.04758132942820
  H   2.31783418212316     -3.44670891064287      1.05487185659630
  H   3.92267760152042     -4.56577147417316     -0.53665231250581
  H   5.42981751819535     -5.37962570243514      1.30781315918790
  H   4.89659834292439     -3.94699850845068      2.34206831516704
  H   6.23610518479662     -3.69558496469523     -0.43771399595027
  H   5.70209465844156      1.98971505108927     -1.95297018021867
