28
Coordinates from ORCA-job 7590optt
  Br  0.97922380249713      0.33330268789835      0.14273807914643
  C   2.84976533271163      0.31541620296882     -0.40412374801611
  C   3.42519318503603     -0.89585785340778     -0.66075834214159
  C   3.09485279502651     -2.28905281717433     -0.18795638835214
  N   4.42019372564225     -2.77715612504650      0.29626569755863
  C   5.49523851451001     -2.09206408674274     -0.46478760584264
  C   6.61415893758781     -1.43078236287411      0.39119973492950
  C   6.87870259180357     -0.05957102522223     -0.29749134661008
  O   7.51107344755238      0.92436424909410      0.51086672147624
  C   6.63734041886895      1.81203033635084      1.19161070392488
  C   5.64355652003021      2.50759609916306      0.25749823112624
  C   4.82898297583179      1.42719078124865     -0.40007366415783
  N   3.44911022136163      1.51045798312499     -0.40199028063535
  C   5.49292444513294      0.29548357139343     -0.74145829147850
  C   4.79149371706080     -0.90006504748956     -1.06467076661672
  C   2.54392852380130     -3.15160800655106     -1.24962709346447
  C   2.10767810891518     -3.88526928103817     -2.09444734352899
  H   2.37955949792478     -2.26704358390149      0.63651316550977
  H   4.47416709339754     -3.78283842562047      0.19651615936142
  H   5.93863009280840     -2.77891655432652     -1.19867673417273
  H   7.51953086735080     -2.03348652263742      0.49591086002722
  H   6.20067409376575     -1.23670243123097      1.38387324779803
  H   7.55797512457400     -0.20715263552776     -1.14450930629920
  H   7.29603364124616      2.52983964206002      1.68570107156727
  H   6.07211605355355      1.27336441564758      1.96275592771101
  H   6.19070320022024      3.12674491543226     -0.46068881526247
  H   4.98662110325974      3.15718585718220      0.83846417805633
  H   1.71657196852882     -4.51240998277320     -2.85765405161413
