28
Coordinates from ORCA-job 7591optt
  Br  1.06969088373916     -0.13173949807209      0.24973129322221
  C   2.98870028139975     -0.04504497056955      0.06301306795669
  C   3.66186346913450     -1.14731941277028     -0.42597255064854
  C   2.96778296578155     -2.40410125070827     -0.88958747335503
  N   3.11993318042781     -3.51392645699998      0.05319902959531
  C   4.37702409669318     -4.13420462629589      0.05320900161406
  C   5.55165103336912     -3.59565324980169     -0.42126069966313
  C   5.86340170482409     -2.26993365566531     -1.05653621634421
  C   5.07475036661033     -1.10615181088396     -0.50756373748409
  C   5.73166430499726      0.06400491844741     -0.09455205102330
  C   5.04756908064519      1.15772317838109      0.36405720620782
  C   3.62179748221700      1.16941995958828      0.46413330408053
  C   2.97639855383120      2.35070980097322      0.93405329608828
  O   3.57969094763436      3.40113211570981      1.25795028072354
  N   6.53481961774507     -4.53721462383412     -0.20182832582705
  C   6.01374128434942     -5.64392306912602      0.39905024203611
  C   4.67036864835180     -5.42804116056893      0.57159885292828
  H   3.37675357402103     -2.68581836561685     -1.87151162881760
  H   1.90546572639218     -2.22231284786540     -1.01500454369610
  H   2.37581039364223     -4.18896208709090     -0.04353607419383
  H   5.74621391972992     -2.35140184503408     -2.14789226341843
  H   6.92449867189523     -2.05731525066117     -0.89162972212983
  H   6.81662294245330      0.09932890997599     -0.14590319347089
  H   5.55951568016038      2.05856655748377      0.67730696145041
  H   1.88039529462880      2.31544327256367      1.00760551629702
  H   7.50617844383399     -4.38692762972830     -0.40448932106904
  H   6.63104268479665     -6.48556668487852      0.66302926911719
  H   3.96865476669545     -6.10977021695193      1.02533047982362
