23
Coordinates from ORCA-job 7592optt
  Br  1.03819960024128     -0.30785398857820     -1.06364438568729
  C   2.71996284647373     -0.21760544087592     -0.02854083593998
  C   3.55631089586604     -1.34878522355067      0.07192610332506
  C   2.92863227944526     -2.65103409160598      0.29905107903038
  N   1.71974121291636     -2.93995630339039      0.68514026070301
  C   3.81868404380918     -3.74380442282916      0.03359556304670
  C   5.16417531396228     -3.65213490295800     -0.23137466786988
  C   5.79001784523328     -2.37508705314917     -0.24718954614893
  C   5.00980142609727     -1.25773699882407     -0.07385933424139
  C   5.65079053651507      0.07010255354866     -0.00702319839763
  C   7.09902029327253      0.21162066725418      0.20959302591539
  O   7.71043587014467      1.26239939171009      0.17519131780773
  C   4.96876834259380      1.23822053096443     -0.02676069924412
  S   3.28484718365005      1.41590147888764     -0.12535672304685
  N   5.70097924195117     -4.91679258535245     -0.39527614667260
  C   4.68870678730379     -5.73144878636204     -0.22763818426477
  N   3.52719831711220     -5.07846782447906      0.04055841808623
  H   1.18893942064127     -2.09658938348565      0.87765102715809
  H   6.85584294789471     -2.31845305249670     -0.40445485600488
  H   7.64134583805394     -0.71484833921896      0.45431817919014
  H   5.52199460542982      2.16562922061879      0.06928818863838
  H   4.73801970567311     -6.80742403410034     -0.29235374972502
  H   2.60858544571912     -5.44385141172701      0.23115916434223
