26
Coordinates from ORCA-job 7601optt
  Br  0.92020734061764      0.08493921591995     -0.17276942967137
  C   2.82091881750966      0.05886920191879      0.03567164408821
  C   3.49530305664502      1.24949503673586      0.03076679652903
  C   2.82804877634739      2.58473973422600     -0.14187167031019
  N   3.59897281310421      3.62289178598253      0.53028727729378
  C   4.96445352307275      3.69297299753982      0.25503301921483
  C   5.63870236658457      4.90500646558552      0.25909084390138
  C   7.01717337389947      4.95800405155450      0.06371380690759
  C   7.71629557040983      3.77725411402471     -0.15183754230130
  C   7.04715282388712      2.56177411940026     -0.16333376734437
  C   5.66144112101220      2.47496402398933      0.05059029672847
  C   4.91716685412491      1.23922967340043      0.10489053368778
  C   5.51834376648493     -0.03729221635891      0.21412922117150
  N   4.87696682908982     -1.16981711470973      0.23880657302801
  C   3.50638280747412     -1.19140633670101      0.14420237848826
  C   2.93519065552346     -2.50563798473574      0.17848190902770
  O   1.74948163586906     -2.84272229478505      0.11170226132574
  H   1.82896972051313      2.56890001428774      0.28594002609955
  H   2.72256134520279      2.78661417180145     -1.22059222168169
  H   3.14735520873195      4.52456585119524      0.50220846476902
  H   5.07572330793620      5.81744545140478      0.42799325194822
  H   7.53091144616786      5.91094312120859      0.06985371558547
  H   8.78606368220869      3.80055762690149     -0.32044184712853
  H   7.60908921377052      1.65637601791384     -0.35160106781179
  H   6.59917857789279     -0.10859888462857      0.30686772276190
  H   3.72694536591984     -3.27106784307185      0.28321780369280
