28
Coordinates from ORCA-job 7605optt
  Br  3.99809527666060     -0.40187444356275     -2.47344031025315
  C   3.39122427403502      0.32518060846029     -0.78482907119671
  C   3.49242312779800      1.69389823158301     -0.58075114530104
  C   2.89243943191084      2.69988287942118     -1.55538321126205
  N   1.45570412971570      2.61720731522576     -1.32541663380354
  C   0.89015179906077      3.41171368579842     -0.52962168324354
  C   1.29868947413331      4.77660875522187      0.02589463746813
  C   0.23139359252526      5.06664072001235      1.09865234538583
  C   -0.30096743028413      3.66547762780821      1.42329615427968
  C   0.67273082118217      2.97200509707313      2.42072612384033
  O   0.82463734451906      1.58556149551976      2.19471731480286
  C   1.86841785294559      1.11355172383260      1.43513368807866
  S   3.32313846011345      2.12710772713289      1.11488069095905
  N   1.76750431789959     -0.04198436203857      0.95469159851421
  C   2.78934422005511     -0.59776768316582      0.12233236571256
  N   3.01382363519476     -1.87931127060106      0.14353817047810
  N   -0.32374952405231      3.06446609783859      0.09777579771244
  H   3.12005290682056      2.38096732550436     -2.57231927455266
  H   3.29945455435231      3.70620869659149     -1.39964742723647
  H   1.30768541151334      5.52234568097513     -0.76935489963911
  H   2.30016727749912      4.72320406323423      0.44780580005566
  H   -0.57420741048560      5.67681667841119      0.68994949849217
  H   0.63337804953763      5.57141680463204      1.97837383188562
  H   -1.30856021252734      3.68244568126708      1.84022788567138
  H   0.27808889138172      3.07671279254198      3.43352326248534
  H   1.64391992135387      3.46579041273621      2.38344922908626
  H   2.36791299483771     -2.29334718334613      0.81319155080259
  H   -0.45789318769612      2.05907484189250      0.08260371077738
