23
Coordinates from ORCA-job 7608optt
  Br  1.78697925720420     -2.15431592211231     -0.78850771372019
  C   3.03799668056353     -0.81522255773645     -0.30766765461484
  C   2.70633324285554      0.47699030614054     -0.23423601286241
  C   1.48792133310638      1.22331545620655     -0.54244518323021
  N   0.90667868900057      1.80786009016001      0.43500822424584
  C   0.93942523606446      3.18047476368977      0.19348000012273
  C   0.08663973355009      4.25107165375708      0.23226236737068
  C   0.89150315543005      5.41048910256339      0.04350057876457
  C   2.19617077689545      5.00635862494721     -0.07393389729666
  N   2.24015415609384      3.63702163461025     -0.00158589997051
  C   3.54226511282236      2.92611953435077      0.10591677793555
  O   4.50382783989001      3.68527291673157      0.20871371416814
  C   3.72637930095527      1.48023219223026      0.07951887102661
  C   5.04032874592119      1.00227561818566      0.27409739604837
  C   5.38066822460986     -0.37158895751306      0.24101667530707
  O   6.48432643229743     -0.88688137275232      0.43094188261262
  N   4.30551692809906     -1.25321594528573     -0.05032623700353
  H   1.45154805237417      1.65665100054543     -1.55175251870622
  H   -0.97998045278987      4.19760839407817      0.37222201212048
  H   0.54856243405342      6.43182519021579      0.00248148029154
  H   3.11074910407464      5.56058553525680     -0.17910705269423
  H   5.83688095747497      1.70104607869160      0.47363202571298
  H   4.53112505945333     -2.23397333696103     -0.05722983562839
