30
Coordinates from ORCA-job 7613optt
  Br  0.98986609301679     -0.14088229227169      1.23706445014876
  C   3.22033850014138     -0.08664258898948     -0.04865206147582
  C   3.79207628697055      1.16485137344134      0.00257574746934
  C   3.17725329517934      2.54801157700159     -0.02407654478678
  N   4.26503658196494      3.44899798815847      0.43658132999607
  C   5.55254274994431      2.74632104104301      0.23786175804417
  C   6.52999207472558      3.02505129681214      1.37567904445811
  C   7.06701495782662      4.45100796916010      1.30192441375382
  C   7.65319344863562      4.69490374411597     -0.08014260894657
  O   6.69343576047340      4.48812799639507     -1.08837489254512
  C   6.19445663788107      3.16569927976432     -1.09234871312873
  C   5.16375199183842      1.28422179049061      0.15202738636598
  N   6.01720319066189      0.27129189598906      0.21277144224032
  C   5.45447638688918     -0.94261908993685      0.15496752098850
  C   4.08613529874797     -1.16962897044725      0.04604661855286
  C   2.70902835349781      2.91454655513885     -1.36831476622121
  C   2.33062015552391      3.19596162778499     -2.47010475442974
  H   2.32256762761781      2.58857008167758      0.65518035597909
  H   4.13196467206997      3.58379740305398      1.43244406727198
  H   7.35033920289032      2.30785544577636      1.28021023423684
  H   6.04071866236327      2.82299547671676      2.33256189031378
  H   7.83318440697682      4.61747531862652      2.06361376395486
  H   6.26083314581336      5.16963179929554      1.46998964785343
  H   8.50867335377620      4.01909465067692     -0.23886243697998
  H   8.00282237849566      5.72220378319517     -0.19108503007360
  H   7.00792804580468      2.45951652323438     -1.31239556504506
  H   5.45022178481709      3.11247070475824     -1.88655890393633
  H   6.13934881060022     -1.78472682488368      0.21025262477425
  H   3.71253342245273     -2.18700958232779      0.04883974764482
  H   1.99144272240286      3.44090402654969     -3.44667576647807
