27
Coordinates from ORCA-job 7618optt
  Br  2.65300839280282     -0.22516535401051     -3.26441351252177
  C   2.93353326887592      0.02235096664978     -1.17993743320618
  C   3.34903276487919     -1.09990606292056     -0.45396999309300
  C   2.85544122748314     -2.47006417302007     -0.86468757804056
  N   2.28568790920737     -3.32179233118778      0.18984965008050
  C   3.06386406124628     -3.63375038127743      1.38614112608005
  C   4.49952987615901     -4.17290206224447      1.19885296298041
  C   5.40341444855650     -2.91149786581187      1.22228222566492
  N   4.53574335375474     -1.78195394125207      1.59944177023422
  C   3.33878186124805     -2.36681992505766      2.18920553247892
  C   4.28153973599523     -0.83733630522577      0.55352109407834
  N   4.97268973773594      0.29198505791867      0.64971266644678
  C   4.70661223483187      1.30100345979259     -0.19272723799308
  O   5.33047019858859      2.31478721649525     -0.36399887750860
  O   3.47655447527549      1.20640650370998     -0.92730867540240
  C   3.89047344677915     -3.15520856284173     -1.68011995789738
  C   4.69310728439928     -3.71482418419493     -2.37461076596269
  H   2.03111607725235     -2.28468002568665     -1.55575950183368
  H   2.00005404849942     -4.18863289462182     -0.25087544299010
  H   2.45656009293978     -4.34100214372695      1.95511020365229
  H   4.60835095008032     -4.74835804209844      0.28190569421045
  H   4.74227850615245     -4.82417615036600      2.04141960926693
  H   5.86186436778165     -2.71668813473825      0.25343238497164
  H   6.20331492104895     -3.02615886250552      1.95794266047396
  H   2.50817875101845     -1.66440380961428      2.16799517090031
  H   3.55519736849760     -2.63436448716853      3.23002043207785
  H   5.41660063891034     -4.18184750499495     -2.99742420714812
