28
Coordinates from ORCA-job 7619optt
  Br  1.34443693335009      0.38551971631470      0.89598458127886
  C   3.06992886678045      0.12336920725485      0.08267921995364
  C   3.68633882582345     -1.15265974027386      0.20502753740806
  C   2.88971470255664     -2.30026008781486      0.78379610862327
  N   3.44836776324790     -3.62153982221367      0.51982676926590
  C   4.84001665011257     -3.68705264214819      0.91094324259288
  C   5.45689328583061     -5.04210971441030      0.54780138576004
  C   6.25997226941635     -4.78859723314081     -0.75440008776182
  N   6.07955741798077     -3.38176314405599     -1.12042779909780
  C   5.72053623844428     -2.66892539551363      0.12212366230342
  C   6.95444902926682     -2.45727593361186      0.90172284617758
  C   7.93949480746815     -2.35408562115370      1.57874193548690
  C   5.02091831469056     -1.34788211348499     -0.17671696714754
  C   5.78488544934803     -0.39426008629276     -0.81435837123979
  S   5.18570227756316      1.14472421667160     -1.34014779123830
  C   3.55020727946001      1.28468594037463     -0.53742998931941
  O   3.02450059269049      2.38665185567795     -0.64865866346424
  H   1.87414122722730     -2.27776892902591      0.38845422420785
  H   2.78816504314227     -2.19546665630394      1.87147161035067
  H   3.37201144017000     -3.81841729946199     -0.47520498841433
  H   4.88845481434421     -3.47855852773470      1.98178694462590
  H   4.66302126887473     -5.77820400212154      0.41990819561947
  H   6.11622876512971     -5.39199088540522      1.34122911796739
  H   5.94948995563022     -5.43055717882853     -1.57889492560092
  H   7.32189359247390     -4.97112060616310     -0.57768890148025
  H   5.31433431770396     -3.25411341345064     -1.77287150571479
  H   8.81336508728533     -2.22022245706786      2.16815986170066
  H   6.82797378398788     -0.58011944661559     -1.03185725284329
