28
Coordinates from ORCA-job 7622optt
  Br  1.25626381302975      0.19305584659654      0.78497089959377
  C   3.04903658607197      0.08939163078276      0.18445708340545
  C   3.87980210849662      1.20355962246645      0.22680196183212
  C   3.67815523577406      2.57233413290031      0.82685897324627
  N   5.05638883001235      3.08924400159635      1.06428773184775
  C   5.97177555021470      2.33351961017528      0.17568800529559
  C   6.36791275146606      3.22031410501423     -1.02906609680745
  C   5.23354265969713      3.84956965490443     -1.70252195335396
  N   4.37402713974483      4.37906915983562     -2.24708742724590
  C   7.28619706409907      1.87824308418782      0.86610314695359
  C   7.35162320766975      0.35444288125768      0.96970836047554
  O   7.10527814057190     -0.24253240123566     -0.29962189594853
  C   5.75920099365428     -0.05012777417291     -0.68758924263056
  N   4.93496064570160     -1.19279387959193     -0.55133076348194
  C   3.55650865771636     -1.18288164939446     -0.24224408584873
  N   2.83559613215324     -2.25778352024262     -0.30736962470769
  C   5.17623421819857      1.13224216975390     -0.22573333968504
  H   3.11930984380723      2.54173691886621      1.76327264194564
  H   3.14455764983000      3.23977384859548      0.14563223638363
  H   5.30030776968184      2.84897771533755      2.01750856684576
  H   6.89794933703603      2.59950815436219     -1.75554846177538
  H   7.03309153469841      4.02087213757738     -0.69541287906930
  H   7.36891181172415      2.33133002422646      1.85944903752642
  H   8.15189408324238      2.21558353746627      0.28974426937584
  H   6.61339000122121     -0.01516350620122      1.69093398002117
  H   8.34524462986551      0.03406548589122      1.28893755928178
  H   5.22960346441211     -2.01498422821973     -1.05437895353585
  H   3.40723614020869     -3.04456676273568     -0.60744972994001
