20
Coordinates from ORCA-job 7624optt
  Br  1.10441150079297     -0.07742561159187     -0.09261249953910
  C   3.02874722474918      0.03394940792769     -0.09991305575022
  C   3.72276616750544     -0.31248127743289      1.08571685671351
  C   3.14591512741120     -0.78227559503666      2.27325266352736
  N   3.77027153199106     -1.03272355519662      3.42207649303053
  C   5.09740655747588     -0.75695106151400      3.34515655544882
  C   5.80806076277743     -0.28725667764188      2.25506469228648
  C   7.13240965071297     -0.14054782050657      2.69758323860592
  N   7.24086075429118     -0.49853709642362      3.97319931994176
  N   6.00152687442002     -0.86456442761939      4.34382562316474
  N   5.12244585672120     -0.04636219814898      1.05208286620788
  S   5.92639481527944     -0.28733501410536     -0.40958036290828
  O   7.22127323966442      0.33136297271899     -0.29262161109377
  O   5.90180075990108     -1.69773137293531     -0.69953411691442
  C   4.85451206538095      0.60979059919076     -1.39305377563273
  N   3.55048429692935      0.54077843478397     -1.17536756670658
  H   2.07658555130911     -0.94379431339022      2.26021839753760
  H   5.81847221506720     -1.17165207305412      5.28217226472955
  H   5.27151628783550      1.08196783043361     -2.26943912229616
  H   7.99313875978435      0.18878884954249      2.14177313964709
