20
Coordinates from ORCA-job 7628optt
  Br  2.63756546885752     -1.05072293501202      2.37701137461143
  C   3.01027979549719     -0.20205667575446      0.73521326212064
  C   2.60109030920589      1.11392829842064      0.43969155717652
  C   1.65461212335229      1.75512031930308      1.27209160952954
  N   1.06225490704397      2.93692330689542      1.26873429685029
  C   1.38089433299065      3.87503859504603      0.39275482066124
  C   2.31296017887080      4.01954226637467     -0.62582585010119
  C   2.10731817662260      5.35191548408927     -1.07623159284369
  N   1.15521439522417      5.94872591227169     -0.43497988944735
  O   0.68815882536015      5.03463013945398      0.49501684648320
  C   3.28032891494909      3.10749022379985     -1.17689388437281
  O   4.10435318706130      3.48951707741955     -1.98588072530592
  C   3.22933150726214      1.64018914675077     -0.77891294551037
  N   3.86440247723937      0.92698517031400     -1.63458162353212
  O   3.94177459870440     -0.43595035754179     -1.43886141388360
  C   3.70812389152136     -1.01518032776886     -0.20918498834250
  N   4.07748201301600     -2.22205022413179     -0.03010656435826
  H   1.30890770587021      1.12575651628504      2.08306972386666
  H   2.63770343426404      5.86370613516682     -1.86447130070024
  H   4.53724375708681     -2.55450807138194     -0.87565271290145
