21
Coordinates from ORCA-job 7629optt
  Br  1.16111507684859     -0.17281928566897      0.18246524065367
  C   3.03566008086079      0.00983449159500      0.02488744656891
  C   3.66994511103100      1.19977692031190     -0.05353417598583
  C   3.32283797329985      2.59779175673892     -0.11107799913584
  N   4.39045084142177      3.35249589701897     -0.23681314605237
  C   5.50412946674833      2.53991290126260     -0.25427210608586
  C   6.83654149969812      2.97137100418743     -0.17964162362123
  C   7.90577319017877      2.06673746243759      0.13952974723965
  N   8.08691921762047      0.78748577192749      0.12254404796959
  O   7.14731004790741     -0.02771950297975     -0.58837689959759
  C   5.83134769817604      0.01337835216881     -0.27085287660063
  C   5.10624142790843      1.17346740404523     -0.17789832447452
  C   5.15550598464015     -1.25695461523869     -0.18540767617032
  O   5.63128046107091     -2.38414600545514     -0.25931132437518
  N   3.75197298287999     -1.13820959033391     -0.01988524928205
  C   7.15981534670921      4.35080911145920     -0.18010016687670
  C   7.47265166642438      5.51622319373821     -0.18215711941959
  H   2.32626471057230      3.01319416531791     -0.05856009410710
  H   8.78707018734039      2.54881703469060      0.56000556320317
  H   3.28091315743655     -2.02921850429719      0.03547150887237
  H   7.73225387122649      6.54577203707375     -0.18601477272254
