22
Coordinates from ORCA-job 7643optt
  Br  1.37754781651753     -0.98327834923102     -0.23224787325249
  C   3.07804327581181     -0.17710268712611      0.07928110649796
  C   3.30952715112365      1.18276269208279     -0.20627367046115
  C   2.45187997237804      2.30414688908267     -0.63692859267034
  N   1.21497897911609      2.36671306413789     -0.95385065697876
  C   3.37201814707887      3.48057309502283     -0.73647195217685
  C   3.15547393155504      4.82304454839774     -1.10631943985883
  C   2.74984084372302      5.56611337938468      0.08450193642360
  O   1.72362629876427      5.91340438353091      0.56903189914261
  O   3.93653697726268      5.88220208565013      0.85294689943228
  C   5.17153540146334      5.32316333312935      0.69593584800032
  C   5.54907991650221      4.11204614154342      0.23359564691382
  C   4.64746855390081      3.10035160719435     -0.29272965614134
  C   4.60173229074725      1.72112423889027      0.00793327208869
  S   5.87432147930338      0.81059706571298      0.69864786794330
  N   5.29724603055601     -0.73044341001932      0.92125199389953
  C   4.05008969146910     -1.02854732820931      0.59077010300640
  H   0.77305945075643      1.45434331151707     -0.86377798294308
  H   4.11081563688369      5.24252993603853     -1.41709053295719
  H   5.93025171942458      6.00856340297069      1.05597056630472
  H   6.61100510009141      3.90621978821732      0.31353251681046
  H   3.77792133557073     -2.06652718791789      0.75829070097633
