24
Coordinates from ORCA-job 7655optt
  Br  2.12084092547644     -2.03906334916886     -0.93288252561852
  C   3.01887350768500     -0.50214888594259     -0.29120970882074
  C   2.36996329214076      0.56773946761915      0.30781034453842
  C   1.00980983194917      1.19894703475632      0.20709223368831
  N   0.52698912919725      1.92779171359001      1.14554597642989
  C   0.50724745576117      3.28945612216283      0.72916163252443
  C   -0.23189898517505      3.97163954148035     -0.14070952046092
  N   0.34066250561988      5.19156985673980     -0.60964684922383
  C   1.74924325502815      5.12697282731013     -0.82249745888963
  C   2.49538239611225      4.40408509498067      0.04321398731145
  N   1.72911345031042      3.90833581940931      1.15946142254937
  N   3.86169553075950      4.27073014294004     -0.10376313242963
  C   4.64389650484267      3.21137073363388     -0.05587499857625
  C   4.29714652835271      1.84429839495223      0.13758576379743
  N   5.05930660367627      0.78789454441503     -0.33266154403523
  C   4.42077335430493     -0.33880632186167     -0.49397258074165
  N   3.06973579513874      1.62948470406342      0.64328571623518
  H   0.80760439798716      1.42413741246412     -0.85161075180542
  H   -1.13875968668948      3.59878371901350     -0.59351152926703
  H   -0.15914970180491      5.59056301860888     -1.38572265546524
  H   2.16755847688312      5.62370911064090     -1.68417291414252
  H   2.26964612606378      3.20998170297817      1.65574098287843
  H   5.68550840490761      3.39734954778099     -0.31284909654117
  H   4.99581090147245     -1.18882195256667     -0.85381279393513
