26
Coordinates from ORCA-job 7659optt
  Br  5.43402566339577      4.10858050910903     -5.88340844554621
  C   5.16318026535265      5.12505721950150     -4.31224403518719
  C   5.84832115171591      4.84402417590551     -3.11982155733479
  C   6.73428248967182      3.69582113014529     -2.73738970267550
  N   7.24718219604320      4.03460938759958     -1.38988716979886
  C   6.35870306034975      5.07573761149069     -0.82338195851523
  C   7.14485523118085      6.12533507872117     -0.04310429168848
  N   7.81252722606544      5.62332699688899      1.15258004709684
  C   7.19550880159322      4.70482524235650      1.76706532887553
  N   5.99508666262914      4.14706775021578      1.39181689978137
  C   5.41769963328101      4.35134412664209      0.14168604041634
  N   4.26994362624186      3.87446353736992     -0.08537048837750
  C   5.63326293129385      5.64220179746586     -2.01525331828844
  N   4.84025790751714      6.70458574370732     -1.94257998282765
  N   4.26710644334640      6.98753116291598     -3.16707023114448
  C   4.31809139184280      6.26896458613199     -4.36777656362144
  O   3.66019113415283      6.68213137564252     -5.32518849672493
  H   7.56550514886174      3.53923878550384     -3.42918244875905
  H   6.17093276003951      2.75547932182385     -2.70119427088966
  H   8.17036767904081      4.44097500058318     -1.48491395007248
  H   6.45005196504770      6.92499019431209      0.23666938754939
  H   7.88639263360557      6.57045023686042     -0.70966327644767
  H   7.60521201758682      4.30137580180156      2.69076310933064
  H   5.53067685321054      3.48719879753034      1.99490642398274
  H   3.98311249486681      4.11471164069359     -1.03339512510328
  H   3.60852263206669      7.74797278908131     -3.16666192402999
