24
Coordinates from ORCA-job 7675optt
  Br  1.01402147685257     -0.05132718973771     -0.04431711259996
  C   2.92320583907109     -0.12690586375460     -0.16602326073746
  C   3.60079221092888     -1.29051319958681     -0.12834791920990
  C   2.89488482276357     -2.61542513255567      0.08875847384328
  N   3.56834923462577     -3.72882728459168     -0.58451946475561
  C   4.94163835207840     -3.76027962498722     -0.32133292420683
  C   5.62266957054768     -2.56946693404429     -0.11832404678730
  O   6.95224088266782     -2.82330567907591      0.01083946498988
  C   7.12040172317795     -4.18351298707335     -0.10492676397428
  C   5.89002392177106     -4.78545871455533     -0.31448999713591
  C   8.40647193171247     -4.71629365186176      0.02383446775600
  C   9.51240773232998     -5.19164938786732      0.13715397287733
  C   5.05313511638472     -1.28263488635051     -0.12271768743026
  C   5.82896890854088     -0.11374780275851     -0.10577162228958
  C   5.35507803209218      1.21039567862035     -0.15264716811140
  N   5.99481523391754      2.33637327672815     -0.15207722511686
  S   3.58114602939259      1.48761451345457     -0.25641540091946
  H   1.87696464458857     -2.56283067619799     -0.28719479044513
  H   2.84565694574531     -2.78670476290015      1.17692731661487
  H   3.11217729262981     -4.60739995592310     -0.38522437159587
  H   5.73490164761394     -5.84318295355836     -0.45260813826691
  H   10.48571795653013     -5.60362282183177      0.24028331559230
  H   6.90700104619945     -0.22775348977935     -0.07634584391658
  H   6.99532944783753      2.14645953018836     -0.10751327417436
