28
Coordinates from ORCA-job 7679optt
  Br  0.58565294242305     -0.94541145903847     -0.64845996066502
  C   2.94678229830481     -0.24472196816155      0.21266756690959
  C   3.75415724613650     -1.35122403840649      0.39841128683054
  C   3.24244421578565     -2.67287389311860      0.90530995537278
  N   3.26878181598500     -3.72109491273900     -0.11070048002646
  C   4.53457696795696     -4.36082618450590     -0.36712440671893
  C   4.46856621900342     -5.11599763003233     -1.68507311398749
  O   4.70169019388953     -4.13155308052069     -2.68468633724786
  C   5.60596848395985     -3.15868503937046     -2.17958206237147
  C   5.76723590764048     -3.43348762110469     -0.67526548805700
  O   5.93850733140834     -2.29726738032864      0.14870779986564
  C   5.08403303702663     -1.22041233273070      0.00206406010472
  N   5.63684206762857     -0.12630058622744     -0.47972986538154
  C   4.83443006984542      0.93621284889839     -0.61295570017816
  C   3.48489488787634      0.92430799816672     -0.30206165115197
  C   7.01151151786203     -4.24273850046159     -0.36795639718826
  O   7.49626793780710     -5.06743177107524     -1.09323006136181
  H   2.21161400212513     -2.53494626327277      1.22651041205118
  H   3.83835015041263     -3.01467513815435      1.75748637746973
  H   2.84161711267726     -3.36584130773304     -0.96240616660547
  H   4.77425577607948     -5.01616481848242      0.47719402062765
  H   3.48014763890165     -5.54276880866485     -1.84871807831801
  H   5.22808195794841     -5.90031268192291     -1.74116231125463
  H   5.19025282493700     -2.16312267252552     -2.34025055544906
  H   6.56616410275139     -3.24039675525549     -2.69398357518340
  H   5.30258559787029      1.83439934079197     -1.00647293247174
  H   2.87301713822891      1.80055125831680     -0.47801867633062
  H   7.43657055752802     -4.02621660234068      0.63048634071710
