25
Coordinates from ORCA-job 7683optt
  Br  1.22606860086227      0.02934194580451      0.42190783160247
  C   3.07804388755940      0.06202215913106      0.06056924870368
  C   3.73303729775742      1.25285622436704     -0.20213370142279
  C   3.33506230206411      2.70096893169869     -0.12030022100376
  N   4.61153408946628      3.45633415296108      0.04828705831484
  C   5.66068978298657      2.58882340604602     -0.54249658757103
  C   6.99355666465393      2.52234488707306      0.18773613365263
  O   7.76982364867571      1.45766408046827     -0.34433177070811
  C   7.25532770513425      0.15012652133843     -0.29151732787899
  N   8.07305797228462     -0.83671767902653     -0.24222859009792
  C   5.83686386799769      0.08150327150129     -0.33229235072290
  O   5.18552863762092     -1.11792785575325     -0.14754607626181
  C   3.80729985514531     -1.18090757131495      0.05917848001935
  N   3.28465334725844     -2.33130476062523      0.24246592707634
  C   5.08626323551357      1.22214416334767     -0.44995362830182
  C   2.66103680463178      3.27099150274783     -1.35990785577325
  O   2.36738020486056      2.65849295758679     -2.34496739691311
  H   2.66180194863269      2.91442241390778      0.71781095922275
  H   4.79177356655246      3.51664271187763      1.04549884067374
  H   5.83894419049498      2.89851102914204     -1.57857565069104
  H   6.80745273101026      2.35164639867025      1.25689082055196
  H   7.59874274965928      3.42146217002998      0.06678791770452
  H   9.02121380560060     -0.47234555390819     -0.17886201818248
  H   4.02119393218671     -3.03239530365741      0.21800722649682
  H   2.47764917139008      4.36329979658612     -1.29002726849007
