28
Coordinates from ORCA-job 7684optt
  Br  1.18112613302156      0.15445063342508     -1.60310488904468
  C   3.05983851721295      0.25604416618352     -0.94246289093487
  C   3.65969442754396     -0.87579536478633     -0.35564487510731
  C   3.20171521111981     -2.25901112392084     -0.72346902083728
  N   2.53698289056420     -3.03936761414487      0.34267478865220
  C   3.20847059695583     -3.25516213816703      1.62028201315305
  C   3.24732211906389     -1.97282829360637      2.47887157172619
  O   4.58211210848167     -1.55016404188515      2.69953245814782
  C   5.35273374777895     -1.50488867260326      1.50940473002422
  O   5.51959385931608     -2.83460709582071      1.01150121807636
  C   4.63668073438830     -3.79204273987478      1.54594821901561
  C   4.82658462357470     -0.57639552759929      0.45977924712644
  C   5.43322621838977      0.66079564179732      0.34825675875952
  C   4.90092643564271      1.69436677157920     -0.42038052070157
  C   3.60537875026422      1.50688253662899     -0.97302091425333
  C   4.23651464579035     -3.06094044401421     -1.43614721600184
  N   4.94989861576584     -3.70903233903515     -2.06338848857739
  H   2.42810550575409     -2.12798913306276     -1.48183498538491
  H   2.26646724441457     -3.93623235068251     -0.04658702474143
  H   2.60132708602048     -4.00429946502710      2.13566163338854
  H   2.83909822685290     -2.16502578401467      3.47213414526551
  H   2.66061068658445     -1.18827208375058      1.99761658694888
  H   6.33534975792928     -1.15978285638922      1.83485802911999
  H   4.95559274656889     -4.09864463825114      2.55097455518861
  H   4.69072099384669     -4.65851663081630      0.88309306417536
  H   6.34219117827734      0.83802981422996      0.91806050744540
  H   5.41882047479612      2.63765974891764     -0.52901651799209
  H   3.03691646408028      2.33876902469061     -1.36859218263699
