27
Coordinates from ORCA-job 7685optt
  Br  1.14255621810189      0.12414635886055     -0.22332245498337
  C   3.04879786870317      0.04365259076246     -0.03984312655540
  C   3.76466695640676      1.23036722325021      0.22730319627326
  C   2.98659132464913      2.51846682306351      0.41178775502079
  N   3.76358146907304      3.68436960063359      0.83699107238364
  C   5.03271531997996      3.77077523420565      0.12435194909086
  C   5.74484777251541      5.08992954196411      0.44886133569450
  O   6.46451283800734      5.46404975195914     -0.73121264526145
  C   5.94964186221669      4.83891271155911     -1.81656822915372
  O   6.36355133840260      5.04458597782506     -2.91760545109026
  C   4.82805748761645      3.92381321362856     -1.38233103696880
  C   5.90351950561457      2.56152089593349      0.44800755134576
  C   5.16758124384652      1.25116888692598      0.25005561453941
  N   5.98583516864629      0.21900199872605      0.10581224811229
  S   5.37867653933465     -1.32362622318221     -0.02775878054204
  C   3.60249911027692     -1.24593244560206     -0.22045824690248
  N   2.95045243096374     -2.32842657818938     -0.47977819659385
  H   2.19146285997832      2.36955077956501      1.14376892270589
  H   2.47324551354222      2.77278641260421     -0.52231841060019
  H   3.97399124089784      3.57461193464894      1.82558424263553
  H   6.46477631550519      4.99990574388393      1.26195494907502
  H   5.01040752585259      5.86452982275760      0.68064639243809
  H   4.85064541191853      2.98750354193995     -1.93686131117800
  H   3.88275216137742      4.43327490748349     -1.58960574252968
  H   6.23761615210119      2.64255344882676      1.49008379007323
  H   6.80720486758140      2.54124115844751     -0.16826531247500
  H   3.58881349689008     -3.11673331248127     -0.57228007455400
