26
Coordinates from ORCA-job 7691optt
  Br  1.14048752862956      0.05421864580617      1.03797772771751
  C   2.94234766064743      0.26793362432992      0.41725535032063
  C   3.45815899731727      1.54327211448840      0.20171825079512
  C   4.82474677501100      1.59648877349532     -0.13337891569505
  N   5.23741173302199      2.91110011379380     -0.32153776408597
  C   4.16618569059820      3.78890472671806      0.11968365358179
  C   4.50406581725433      4.44938495378012      1.44473105034670
  O   5.61871966415347      4.49283476267794      1.89667074946632
  O   3.49394148235749      5.05111295865859      2.07830803495584
  C   2.16188629834377      4.81875603121631      1.56775752094191
  C   1.94973476777225      3.34691246685941      1.29949407480408
  C   2.87107661132651      2.92810953312488      0.15153926890841
  C   2.14756796283318      3.06842658360513     -1.19789638079195
  O   0.98176366790346      2.64257186942985     -1.36511202504785
  C   5.57287763517764      0.44586365002490     -0.27072548293636
  C   4.90966897476348     -0.76583906833737     -0.05617934934138
  N   3.62766669645726     -0.85180286400581      0.28913821228190
  H   6.14213863158726      3.14962821571923      0.06421011223267
  H   4.00054844633785      4.60655346603288     -0.59691189807208
  H   2.02194873703133      5.39797291754897      0.65044764058702
  H   1.50145821103252      5.20694970666360      2.33967598610772
  H   0.92066802399639      3.15518881115494      0.99311631941748
  H   2.15509247421886      2.78132755312843      2.21208303399056
  H   2.84260476456244      3.21208846808029     -2.04700483342094
  H   6.62371452934190      0.47323626355312     -0.52743079928541
  H   5.44151821832312     -1.70619427754712     -0.14962953777867
