19
Coordinates from ORCA-job 7693optt
  Br  0.88832527993582      0.24127252567929      0.18761738141361
  C   2.79009126066488      0.16725820593450      0.10964344823066
  C   3.55385627298336      1.31665684988666      0.07898905577765
  C   2.96962515989038      2.62695625505851      0.07746413834497
  N   3.62276427711427      3.75004801216272      0.05384104688361
  C   4.97687669192034      3.70459524947165      0.04976548154033
  C   5.66489832946589      2.49177674577779      0.05867232259697
  S   7.40308365259378      2.50628677369585      0.09629342562307
  N   7.84428512162668      4.12755670196280      0.25542843412677
  N   7.08188550388205      5.09884903978508      0.22588542954744
  C   5.64521700371879      5.00454140272921      0.00200861878888
  O   5.08560703664161      6.05228808703921     -0.19670923295778
  C   4.99527858190452      1.23916710691867      0.05068670637289
  C   5.71189669335508      0.03213109406815      0.02009873980354
  C   5.18816095041881     -1.27224904821156      0.02611918020845
  O   5.78612962115108     -2.33329953464089     -0.00368466140053
  S   3.36751223706155     -1.45509977568867      0.09287443703898
  H   1.88912735610388      2.70346374835106      0.09349810464937
  H   6.79437896956716      0.05180056001995     -0.01749205658887
