25
Coordinates from ORCA-job 7694optt
  Br  1.14752771138522      0.09763895972320      0.18708744809925
  C   3.02360417353000      0.00580621888354      0.02646273675896
  C   3.73951080394165     -1.13909290509561      0.00181201939993
  C   3.34156097848298     -2.58880339758018     -0.06111338091176
  N   4.52737488306126     -3.26800452103332     -0.62580401719518
  C   5.70832059649496     -2.41420307784848     -0.33784803499061
  C   6.55010552089512     -3.04472612166241      0.77379717504091
  S   7.68781654761759     -1.89793637050419      1.56866100798948
  O   8.89916272467801     -2.64340281652903      1.85734482852486
  O   6.94800313559603     -1.35978491235541      2.69019447647077
  C   8.09609264856029     -0.64824855968151      0.44629358511185
  C   7.20753917318452      0.30516985200247      0.00403013333309
  C   5.80580649919941      0.18183633275976     -0.02866535131320
  C   5.13235253095012     -1.05472630445859     -0.03953136084191
  C   5.00264633028002      1.38744846793213     -0.11474769923371
  O   5.38736618342699      2.52124322590613     -0.24478251729795
  O   3.61094854865205      1.22880935790586     -0.03160297973440
  H   2.46246020724073     -2.77748025801857     -0.67788554482473
  H   3.13344434983354     -2.97516445360525      0.94093309801032
  H   4.41163864999512     -3.29282192482689     -1.63104219644419
  H   6.34009895273209     -2.35642092450850     -1.23038885166969
  H   7.14571546498620     -3.87037279541759      0.38716273539221
  H   5.91143154211674     -3.40063168525608      1.58229428218681
  H   9.16605852499131     -0.52965132274199      0.36074625320432
  H   7.61341331816801      1.24551993601054     -0.35740784506546
