27
Coordinates from ORCA-job 7696optt
  Br  0.91397327086187     -0.25562793779049      0.72853399675440
  C   2.71845341625830     -0.13397559019215      0.14850447685080
  C   3.47796037312389     -1.22254160511105     -0.12118153052078
  C   3.37651415866144     -2.74886644014987      0.00096861241856
  N   4.76653268814920     -3.28609007047675     -0.06058028472245
  C   5.49607303654973     -2.24122755838714     -0.28002790217583
  N   6.86260484533279     -1.98042205480639     -0.33567643663091
  C   7.08983908326588     -0.51549820211259     -0.14474920698837
  C   7.76107408299427     -0.14139949037735      1.21416202165310
  C   9.02507326038044      0.62538797469480      0.81574164941675
  O   8.80255912304392      1.07224790014986     -0.51173713601443
  C   8.12824607509374      0.00891614101618     -1.15581086899775
  C   5.68466445488318      0.07540774358132     -0.27465814158921
  C   4.82534773865319     -1.00468208878337     -0.39360969707849
  C   5.20791984882628      1.36088273473887      0.02886278331907
  N   5.79543635848905      2.48439971686246      0.27638574725900
  S   3.36722863040053      1.51599124597989      0.07217909466989
  H   2.76836284240133     -3.18104775354985     -0.79988177116062
  H   2.91553563292050     -3.04026508855047      0.94846418550991
  H   7.48054935966256     -2.60533669503178      0.15988802552521
  H   7.98607747369713     -1.03524695217125      1.79601309038499
  H   7.08713385128046      0.48688245196737      1.79417378001048
  H   9.90871483036830     -0.02789777216732      0.83415630853419
  H   9.22173703283177      1.49927351623414      1.43561857611673
  H   8.83814790769284     -0.79640331357325     -1.39430676028270
  H   7.67446732914093      0.38340761538739     -2.07071086166799
  H   6.79677329503638      2.38173157261881      0.10827824940644
