21
Coordinates from ORCA-job 7704optt
  Br  1.80276155000052     -0.35600997106928      0.90025899585819
  C   3.38985891260716      0.20545296165094      0.01249660864014
  C   3.56890970881756      1.43747461254257     -0.49072149064949
  C   2.99797930754666      2.84306445701987     -0.27719266087482
  N   1.78745715579980      3.19441720868840     -0.03066223538427
  C   4.19114325609150      3.73259859356585     -0.38750650628802
  N   4.46929557244418      4.97302897005005      0.07265085882261
  C   5.76439375785486      5.24213402078999      0.22046027862073
  C   6.87537607497465      4.34859883923120      0.10202655594414
  C   6.57218448074649      3.06908893440415     -0.35501420969922
  C   5.25417927623397      2.92290670306273     -0.79663456078839
  C   4.93609726634803      1.59515714800953     -0.90635694930036
  C   6.03317515572508      0.84313224620337     -0.50191166257080
  N   7.09251845201382      1.78121585567699     -0.29756873940883
  C   5.80388214698871     -0.41989809113943      0.05456229481856
  O   6.49921825706980     -1.28294163962234      0.53440907022495
  O   4.33992717574193     -0.73080375603073      0.01720125949714
  H   1.18947269916766      2.37129556644320      0.01815249750713
  H   5.98472712527427      6.24493669777814      0.57662829406853
  H   7.83978281344357      4.65377941152446      0.48433169866823
  H   7.98065985510970      1.53037123122032      0.09939060229386
