29
Coordinates from ORCA-job 7705optt
  Br  6.45614431335780     -2.61315768489366     -5.30070312237584
  C   5.18791061270785     -2.68047833404772     -3.81660753995139
  C   5.60412183131138     -3.22290569929951     -2.63614150926944
  C   6.96049681146006     -3.81574524174352     -2.37478146959104
  N   7.29978330109525     -3.73519609250297     -0.96306995858285
  C   6.41984845213406     -3.89617309839665      0.05858096223807
  N   6.86157683545815     -3.81356767965984      1.26173493123903
  C   5.94119704097806     -3.98305753816219      2.37086573532700
  C   4.62855349639676     -4.69099270766150      2.01474167787944
  C   4.03276021514227     -4.01944265016967      0.78988085154006
  C   4.98990081976321     -4.15651109376845     -0.38822986127796
  C   4.66057757479520     -3.27422115409018     -1.55571150234519
  C   3.35173663542789     -2.80878490961970     -1.86629490538737
  C   3.08274744150305     -2.27919347279516     -3.09730617787668
  N   3.98888353867013     -2.17480118881526     -4.12471688772134
  C   6.61200949010794     -4.69210518848482      3.47314332882574
  C   7.12011931983213     -5.28037304619567      4.38673877861986
  H   7.72867948937337     -3.28606445494998     -2.93528977400596
  H   6.98507461461524     -4.86171218164737     -2.71261302749858
  H   8.24915072291366     -3.54733885574213     -0.68822470421364
  H   5.68294487758693     -2.98814393635974      2.76184814621657
  H   3.95269151266435     -4.65764320867805      2.87181113869831
  H   4.84317122783240     -5.74213846362541      1.80132425843410
  H   3.86573176284789     -2.95602507330221      0.99081886612049
  H   3.06691367852444     -4.45649465838736      0.53148116594499
  H   4.97029117772643     -5.22969232623630     -0.68716035070508
  H   2.55619346939055     -2.84683671514304     -1.13081330613072
  H   2.09195566655521     -1.89378630493765     -3.31651641014760
  H   7.58783406982825     -5.79941704068422      5.18721066599702
