27
Coordinates from ORCA-job 7707optt
  Br  1.21571762255553     -1.43887301032130      0.15008072193288
  C   2.57505750749285     -0.13962290478699     -0.33684933097743
  C   2.26367735548253      0.78109181238568     -1.30551077868698
  C   0.86066789350367      1.18592795902718     -1.68959823804976
  N   0.04280238807960      1.84602650446104     -0.62067052150650
  C   0.72248948882597      2.96904794328013     -0.12794948710508
  N   0.61637192654594      4.20010776779266     -0.56422990071235
  C   1.69361685076184      4.86607851924750     -0.02628260422682
  C   2.45272168170240      4.02989907717481      0.74685866875268
  C   3.85536380395311      4.07219112566077      1.24681062994799
  C   4.81731785285290      3.41571028114911      0.21928888273971
  C   4.36477153505313      2.02803097310561     -0.18128589232494
  S   3.61763125800798      1.79506584159153     -1.80784577681689
  N   4.36614934666602      1.08894853014056      0.67390386577681
  C   3.77425175901980     -0.17663205434185      0.44906659800982
  N   4.20495406281053     -1.24302007859739      1.07356843660635
  N   1.77982340429194      2.83616217551088      0.71521994571464
  H   0.29569929406151      0.30695108146937     -2.00134877790530
  H   0.89764230829433      1.88505212414336     -2.52415904187662
  H   -0.10651646126841      1.16588600610157      0.11851634259589
  H   1.88147712216702      5.90552813263611     -0.24556129753097
  H   3.93948494518915      3.52600076940947      2.18884635651717
  H   4.16230172173068      5.10411974261246      1.42606215829751
  H   5.81221412570993      3.33887308692077      0.66374861176890
  H   4.87629127054605      4.05117505445258     -0.66555845220913
  H   4.99707365631651     -0.96068906644550      1.64827980848711
  H   2.14194627964746      1.94796260621981      1.03759907278131
