25
Coordinates from ORCA-job 7712optt
  Br  1.00285421427307     -0.37270419060782     -0.94632083790594
  C   3.40226734205490     -0.03095198400927      0.06219356574491
  C   3.97995402479836      1.17919119903703      0.11361998132124
  C   3.36073747804836      2.49475032622127      0.17241389732153
  N   1.98369762776761      2.60227124647871      0.16428766484275
  C   1.26099969639959      3.72872015098248     -0.03474083705941
  N   1.68786023283130      4.93860150531030     -0.05948428509040
  C   0.50005757337854      5.76851534882537     -0.25822094411597
  C   -0.58661495595375      4.80789364222538     -0.77559518816378
  N   -0.12045735513001      3.55027968142677     -0.20221868188921
  C   4.34903179887060      3.43334394746058      0.20596902114599
  C   5.63297476719303      2.74802249517227      0.17149645759439
  C   5.41155038207356      1.41150769395011      0.11446667302660
  S   6.51944297527358      0.07329907721884      0.04700660563850
  C   5.45193584585507     -1.32553122373550     -0.03478646754910
  O   5.91907638870046     -2.42269728582456     -0.10017206552120
  O   4.09186396570271     -1.18359553880911     -0.00940887198196
  H   1.49355137548321      1.72061357079577      0.02094481311844
  H   0.69943843888043      6.58334090849079     -0.95533549157820
  H   0.19353352613250      6.21385386344775      0.69608998997947
  H   -0.58487739032044      4.77364986910248     -1.87110793731288
  H   -1.58833352745901      5.06312996688272     -0.43062862830286
  H   -0.38469523273333      2.69079761864694     -0.66900715964600
  H   4.19591276907959      4.49846944872352      0.23998128521436
  H   6.59623803879993      3.23722866258700      0.18755744116874
