25
Coordinates from ORCA-job 7715optt
  Br  1.27810444462562     -1.27209959855338     -1.16923908665304
  C   2.65974138717647     -0.10848003262895     -0.58579593362952
  C   2.57773372400805      0.50656724342270      0.68000630430906
  C   1.25744186328301      0.72185961973026      1.37077431648004
  N   0.35415543061070      1.68495592987485      0.62569110280889
  C   1.07102318859805      2.60309474343019     -0.15274464188314
  N   1.14206860864272      2.64476673532455     -1.45601215709691
  C   2.27814797661440      3.38399732030526     -1.74124665039095
  C   2.88444503333324      3.78055505708618     -0.58781396488665
  N   2.01065698475159      3.39645277564278      0.42072914746925
  O   4.12207446420517      4.21632394985347     -0.28866196234049
  C   5.11464888726925      3.11101035016728      0.09087192014225
  C   4.57382541229154      1.74424985319402      0.09352164052308
  O   4.64694510443877      1.09418257800140     -1.12427308523690
  C   3.72620832123438      0.10637708954652     -1.49678786032841
  O   3.93154198069994     -0.43213013149288     -2.56402462549212
  C   3.63629234498759      1.34886647979833      1.02275401494574
  H   1.43098933439521      1.12197126606450      2.37244577368585
  H   0.67614475902610     -0.19454307006388      1.47313587797955
  H   -0.21405862087436      1.15069958833770     -0.02361691912511
  H   2.63728282943165      3.50563977161412     -2.74901545993631
  H   2.24338364258991      3.39835144305661      1.39650612057435
  H   5.45037478203977      3.40818281072729      1.08361787277361
  H   5.91330796616908      3.23342849540851     -0.63764565367068
  H   3.60252015045210      1.89471973215253      1.95982390897855
