21
Coordinates from ORCA-job 7720optt
  Br  11.12519297434111     -2.53673287832149     -3.08710780366503
  C   9.32330691939372     -1.99220957663417     -3.09322556588575
  C   8.42402679544891     -2.40978224244358     -2.10788436932965
  C   7.10217162101186     -1.90833677380139     -2.18062560435178
  N   6.31046701898350     -2.29131077985726     -1.04950889075808
  C   7.12358546453813     -2.88511029799713     -0.27966239167916
  N   6.90542791292951     -3.67774484323427      0.82642449314571
  C   7.91869317169640     -4.73761283837336      0.85448375157266
  C   8.83523532378697     -4.45141302430598     -0.35338728922333
  O   9.55975668594555     -5.25158101401756     -0.85397284876985
  C   8.58032121746501     -2.97169749403189     -0.73064793921882
  C   9.45458186006833     -2.19155754879582      0.15287496780394
  C   10.18060288063366     -1.55892823885989      0.86679636779669
  N   6.58639343504473     -1.18720268391945     -3.12152020987705
  O   7.47712332904099     -0.91619221771582     -4.18020332147271
  C   8.83679191213293     -1.25154523600254     -4.20082065917471
  O   9.44659931428386     -0.87855088542756     -5.18348000606400
  H   5.94478342195023     -3.95293239335405      0.96500455285572
  H   7.48639558169788     -5.73239988289509      0.73852690027867
  H   8.51574994278084     -4.71577665897624      1.76883561514903
  H   10.82679321682576     -0.97338249103540      1.47410025086752
