26
Coordinates from ORCA-job 7724optt
  Br  0.85565329234188      0.23854945264570     -0.09046985841526
  C   2.76764776008190      0.09466121276435     -0.06355544435083
  C   3.54105626318938      1.26724216077634     -0.12237844175075
  C   3.38020954560889      2.77412455585612     -0.19869603290793
  N   4.75100020012728      3.33067354246157     -0.19792390821927
  C   5.57801248087125      2.32893496401354     -0.12203477283231
  N   6.95993354891206      2.34989329487461     -0.08170419849172
  C   7.55031174303984      1.19547495782552      0.01184276537608
  N   6.93651271399266     -0.03669207342772      0.04031130448185
  C   5.55705538479060     -0.14527510740656     -0.00850592454282
  C   4.91096471609824      1.05956474451018     -0.07967660127847
  C   4.77758112894302     -1.33075823747198      0.00987936113779
  C   5.40004143712162     -2.64862816921025     -0.06311935240386
  O   6.12112101507629     -3.00355766487036      1.19772172674495
  C   6.69248808437248     -4.20617442874638      1.20630359658534
  N   7.32704589664982     -4.71533314047595      2.17292349635205
  C   3.34894371055122     -1.14825562054620      0.00762423892873
  H   2.80942114436643      3.18186235401987      0.64876634749333
  H   2.84264711158593      3.09982145488385     -1.10143356749864
  H   8.63224654081839      1.15349918258098      0.06870778328736
  H   7.49549083113712     -0.85491100611402      0.22023983417723
  H   6.17707468649753     -2.71036183705133     -0.84065194126597
  H   4.65613306853318     -3.42821320477562     -0.23835083258698
  H   6.58044075792562     -4.77525054514769      0.28012798966546
  H   7.33907376498873     -4.05964203456446      2.95572387691138
  H   2.71689317237855     -2.02724880740411      0.04532855540323
