22
Coordinates from ORCA-job 7730optt
  Br  1.27165762624525      0.15657758685908     -0.52951875978096
  C   3.17879666985118      0.12604614196884     -0.27781642931246
  C   3.81242448666965     -1.10714589136751     -0.05777211855757
  C   3.44292595615896     -2.56322107048044      0.04080887582796
  N   4.70798774191648     -3.28737511253739      0.23767351575616
  C   5.63151255328981     -2.39049709366783      0.24183009143008
  N   6.97518268264650     -2.55258095467692      0.38341291435478
  C   7.89874602269491     -1.49188901900379      0.27226122026531
  N   9.15148542131289     -1.68572066917385      0.38130721410220
  C   7.38529650059985     -0.06486460410076     -0.00672324924394
  O   8.21974479364495      0.79510189366582     -0.27004057591071
  C   5.95755046589500      0.12071922200237      0.02449098532312
  C   5.16663761041487     -1.03236562739686      0.07685332219901
  C   5.16196663497974      1.31893638734282     -0.10392090436026
  C   5.61983371897493      2.69810947688613      0.07189643163590
  O   6.64660550221150      3.06343363650789      0.59860469846253
  N   3.82134066183003      1.25017886547420     -0.29250896118196
  H   2.94891092389193     -2.92032286439260     -0.86791575732605
  H   2.75996425565101     -2.76208158484053      0.87195278530382
  H   7.33769673386146     -3.48564173879803      0.51308360570700
  H   9.35495869336167     -2.67021388809032      0.55597979773949
  H   4.86477434389737      3.42681690781968     -0.28293870243346
