20
Coordinates from ORCA-job 7732optt
  Br  1.81055573497173      1.25045382238464     -0.00514146100758
  C   3.56921031976730      0.52865258118423     -0.00470932192623
  C   3.74278350800113     -0.83149916232012     -0.01090968809812
  C   5.07603925588639     -1.35602464125127     -0.01022391019657
  N   5.18008625536869     -2.70605373732083     -0.01607228020493
  C   3.91505718131237     -3.14989261250180     -0.02113906513029
  N   3.38744306041731     -4.34480699538353     -0.02826733681574
  C   2.01026257012627     -4.12646609508444     -0.03077066596952
  O   1.14623068750935     -4.96003664506748     -0.03738775578069
  C   1.70849594257515     -2.58778545780176     -0.02395200594496
  C   0.39432825039601     -2.07862369288418     -0.02494295414667
  C   -0.74550334622038     -1.69918606225218     -0.02653121067248
  C   2.91482619657065     -2.01585154544187     -0.01818860208904
  C   6.17806699362678     -0.43635665024196     -0.00308326962291
  N   7.45267438139128     -0.77366178980569     -0.00142456690552
  C   5.80008423788934      0.94849818188524      0.00263772747829
  N   4.56997798680046      1.41516242761561      0.00195706135746
  H   -1.74762642699976     -1.34633115405013     -0.02711975303261
  H   7.50228337581778     -1.79513138932991     -0.00610160504993
  H   6.60672383479208      1.67494061766746      0.00837066375803
