24
Coordinates from ORCA-job 7735optt
  Br  1.00004280115998     -0.08048344324831     -0.08009178930686
  C   2.89628319883390     -0.06174197078306     -0.05788094389188
  C   3.59110294223740      1.14229877885636     -0.05512328221458
  C   2.82120485131633      2.43268036327684     -0.06296008121867
  N   3.65266610031109      3.61539465921407     -0.05598428071837
  C   4.99479923105883      3.64082271027665     -0.05397966594117
  N   5.56784396792728      4.83163181265753     -0.05664039354663
  C   6.91962186157836      4.92669624323784     -0.05537777116627
  O   7.55021797351696      5.95627754233661     -0.05739221067135
  O   7.66852269872307      3.75618673536332     -0.05169115428749
  C   7.06192278472542      2.54090963032320     -0.04804765512827
  C   5.71311693107290      2.40237490919707     -0.04870213248385
  C   4.99902123598092      1.14102320752835     -0.04520497236740
  C   5.66298445027953     -0.07475223512741     -0.03552512627166
  N   4.92498382449151     -1.26061743220324     -0.02915850908582
  C   3.54093297604444     -1.34873449602349     -0.04543547724905
  N   2.89958861252827     -2.47268858211810     -0.04757287948958
  H   2.15497735862722      2.45159061901138      0.80590467869381
  H   2.16982235723528      2.45074414129846     -0.94308968670129
  H   3.21352676882203      4.52188624728801     -0.06143718535973
  H   7.77112007844670      1.72778395213929     -0.04615738552714
  H   6.73436593128539     -0.18489934986174     -0.01913864301199
  H   5.42069635129782     -2.13460904802226     -0.03270782785898
  H   3.55463471249928     -3.25177499461739     -0.03560562519579
