22
Coordinates from ORCA-job 7738optt
  Br  1.22126263876684     -0.40095345708159     -0.08979788131023
  C   3.07948760897177     -0.04102425405152     -0.08966115830909
  C   3.62917114692730      1.17038761069135     -0.08948645306203
  C   3.13825420799918      2.56489190293883     -0.08933132429413
  N   1.92834487844924      3.04557378069526     -0.08937575018473
  C   4.35117451214536      3.36303883718316     -0.08909876361566
  N   4.38192967138123      4.69643572389573     -0.08881842486600
  N   5.65698912746337      5.19613118937563     -0.08863421860229
  C   6.79573195203901      4.50108282198561     -0.08879108943552
  C   6.81381345499702      3.12209541875434     -0.08912781776254
  C   8.03493565907232      2.41161105496233     -0.08950207312336
  C   9.07553888116280      1.79931599857916     -0.09037246746507
  C   5.51080166310940      2.49635858015006     -0.08921140046581
  C   5.09925258119523      1.19306987166671     -0.08941118607703
  C   5.75727026572176     -0.05884190583353     -0.08945827229776
  N   5.18394444470201     -1.21652736654775     -0.08961407726920
  O   3.75947277112559     -1.21765339568385     -0.08977873674303
  H   1.25372050180650      2.28566971310139     -0.08954074163193
  H   5.68906816101894      6.19975348236169     -0.08839489462280
  H   7.70617628680427      5.08597425625169     -0.08868103180194
  H   9.98555137613352      1.25158091902447     -0.09056537037583
  H   6.84010820900726     -0.12297078241918     -0.08934686668403
