23
Coordinates from ORCA-job 7739optt
  Br  1.79367137449337      1.20398637016966     -1.66077009113272
  C   3.17062685092087      0.47085969840571     -0.53962275083086
  C   3.16756507777231     -0.90652668397966     -0.34291512996331
  C   2.75845655993538     -2.20597793427039     -1.03525035981706
  N   3.72499337957225     -3.22726114879563     -0.49185448534608
  C   4.73903996560366     -2.51666342152879      0.19786520701972
  N   5.96284104051464     -2.65661523989824      0.61892110965276
  N   6.37270296340436     -1.37080032889417      1.02819596821961
  C   5.36258601267674     -0.53375366662883      0.80490908767804
  C   5.10572443718607      0.87126041209081      0.72478769544106
  N   4.02218128726416      1.30059012747659      0.00531943792243
  N   4.31294109176351     -1.27110343231944      0.36106383936356
  C   1.31832701088952     -2.58428221106108     -0.69353136861579
  O   0.38631288362356     -2.27874777552679     -1.39664625792335
  N   1.17646414532977     -3.27941860207368      0.49028051923443
  C   -0.04861300300197     -3.63960052743587      1.01076264626849
  N   -0.26427867200522     -4.31579064187208      2.06063628723014
  H   2.79816013334435     -2.14046916266609     -2.12856871904875
  H   4.07968084761400     -3.85961693086182     -1.19397440871285
  H   5.80254555205381      1.61138653370625      1.08273002229553
  H   2.03417846199519     -3.57115586905678      0.94139242892084
  H   -0.87834545493068     -3.27827432341409      0.40993718397605
  H   0.60923805398023     -4.58102524156552      2.51833213816810
