26
Coordinates from ORCA-job 7741optt
  Br  0.95760460545562     -0.03521566737733      1.39314433036810
  C   2.91843281233960     -0.03723522313594     -0.07063994841318
  C   3.59391024276186     -1.22592985265116     -0.10943462392798
  C   2.77880266750869     -2.48286123816813      0.02821677479868
  N   3.29308896201626     -3.66015471707225     -0.71137881032957
  C   4.35558059997479     -4.29767464100572     -0.12442752042684
  N   4.41834808483635     -5.53526951813814      0.23773496896518
  N   5.70789537342959     -5.65863709699288      0.75654412161636
  C   6.45034350767909     -4.51192362622573      0.60234563019383
  N   7.68394329073432     -4.24455647597453      0.81164924346580
  N   5.51546378271237     -3.60272772327481      0.12381498770109
  C   5.88486100123734     -2.34303917064134     -0.49564069575165
  C   5.01636964704050     -1.15207139110765     -0.16697091288740
  C   5.64310268447609      0.05247026817170     -0.07331300640178
  C   4.90262225017628      1.28127579798765      0.04497612616950
  N   5.32770042131131      2.47581232065695      0.17427268691357
  O   3.53070887525878      1.14076787547560     -0.03886912667199
  H   1.78079023673446     -2.27577819190211     -0.34817412278612
  H   2.66576245792323     -2.73860239363951      1.08890282034174
  H   2.55761729436945     -4.33255324636679     -0.88324976582232
  H   6.11767135625252     -6.57467845831445      0.77642981272772
  H   8.17594793437767     -5.05694837757888      1.16742042547264
  H   5.86709512787523     -2.48265508364878     -1.58205178665808
  H   6.91337329168243     -2.15699908100383     -0.19324059429897
  H   6.72204119918484      0.12520586864389     -0.11667253815344
  H   6.34292229265118      2.45997904328426      0.21161152379510
