21
Coordinates from ORCA-job 7743optt
  Br  1.42505555452351     -0.99896689695465      0.74176363664270
  C   3.16784490655539     -0.42864354359410      0.31906916801813
  C   4.18563639004951     -1.30650993704489      0.11583167157559
  C   5.52283933241662     -0.83772573923942     -0.19017872855474
  N   6.43636675150671     -1.79711528998981     -0.34305274848779
  C   5.78670433154664     -2.97963179402509     -0.09848328043957
  N   6.39425812212529     -4.06514162398869      0.21209446167984
  N   5.62234023504247     -5.12519232564595      0.66253617197936
  C   4.54430333083198     -5.67820796199234      0.00977551613564
  N   4.32874650813647     -6.92631075259041      0.05329041654521
  O   3.76044423193673     -4.83721491387702     -0.71112826920995
  N   3.34932544042606     -3.58231014467401     -0.16160728829744
  C   4.30475915967552     -2.75618897073826     -0.01097188286306
  N   5.79829379957544      0.48516548743627     -0.29364987049500
  C   4.80471431595707      1.30585128605161     -0.09183032046245
  C   3.42933675560296      0.98398366689786      0.22703538252572
  N   2.48848042469099      1.88337189006476      0.41562844491979
  H   6.21238623811635     -5.85376298532901      1.03257038731698
  H   3.42990354960791     -7.12673963977170     -0.37438720437431
  H   5.03016042601247      2.36966092418128     -0.16831413616394
  H   2.89510019566384      2.81162926482361      0.29800847200928
