23
Coordinates from ORCA-job 7744optt
  Br  1.20568166522974     -0.16143112130558     -0.26032980641150
  C   3.10114215651249     -0.15393984018235     -0.12792994668407
  C   3.80425584914083     -1.35152177754456      0.05784117914309
  C   3.20964287562977     -2.61354995004250      0.20192404084432
  N   3.82635179870683     -3.78857433148420      0.29713657667925
  C   5.16651340676158     -3.71470447857276      0.17603781189509
  N   5.97380713847294     -4.75505768858448      0.10985713484376
  N   7.21913241286590     -4.21642835573714     -0.06161268392022
  C   8.31286795078394     -5.02148269257070     -0.16592939150159
  O   9.44884310484868     -4.62265753699126     -0.31403809279153
  C   7.20550127826411     -2.83125898212497     -0.10089030159584
  C   5.90435115267926     -2.46809975318324      0.06009477073648
  N   5.22431306962024     -1.25726319651257      0.08999299538042
  C   5.91796837186408     -0.01776311948320      0.18443537674593
  N   7.16396068342407      0.09359454577909      0.48451414540662
  C   5.12081777774407      1.14267364153195     -0.09449497165592
  C   3.76031479868013      1.06289428350344     -0.23566819842066
  H   2.12857229374336     -2.63475446048343      0.22725613588816
  H   8.02700695173165     -6.07971973529588     -0.10128730086610
  H   8.12659338065677     -2.30676064621983     -0.27260686927008
  H   7.57679839935942     -0.78746575697328      0.75585495580946
  H   5.64682320754247      2.08458889956210     -0.11602813662834
  H   3.17974027573759      1.95968205291535     -0.41112942362676
