24
Coordinates from ORCA-job 7746optt
  Br  1.05825863790546     -0.14194970665156     -0.32268207987491
  C   2.95518686953406     -0.09506172163726     -0.18719173837091
  C   3.65847537511933     -1.20734580675974      0.18152542066340
  C   3.00102705813676     -2.49150463452588      0.58980413422367
  N   3.17836241115554     -3.53160218733980     -0.41766641125216
  C   4.38494564321985     -4.19916640275482     -0.31472830997927
  N   4.53385902839265     -5.46854843498759     -0.56070361555460
  N   5.82175808376644     -5.71727375926056     -0.19941281666585
  N   6.53162317755707     -4.61699012630619      0.13996341061623
  C   5.61803945621767     -3.62153531167572      0.14130293888316
  C   5.96226560100908     -2.29665154461481      0.53568454433652
  O   7.07832246039004     -1.96501645340798      0.96494046355754
  N   5.03474970755028     -1.17768233472819      0.22968411536472
  C   5.65839420844632      0.01606869179709     -0.01256947713140
  C   4.99717350692782      1.14156188538804     -0.34969491720322
  C   3.55998251734277      1.18965976795926     -0.49242067403012
  N   2.85509987978709      2.22176121728160     -0.82977824361621
  H   1.94034708501992     -2.31933056447866      0.72433401073644
  H   3.43213842668997     -2.79921107601415      1.55111380907763
  H   2.39846651958411     -4.16809140708760     -0.48799737536360
  H   6.30863264859621     -6.43858066644609     -0.70798889709735
  H   6.73103157372413     -0.03441468888926      0.09223918258623
  H   5.56511186705390      2.04475227743336     -0.53430636114455
  H   3.47774825687346      3.01215298770653     -0.98645111276137
