20
Coordinates from ORCA-job 7747optt
  Br  1.15969029968652     -0.06283558665356     -0.03498575467736
  C   3.06166740102452      0.05964631353804     -0.03409690233476
  C   3.72317240881321      1.27668622457079     -0.03427175121669
  C   3.37049873206736      2.67049700326831     -0.03479249514103
  N   2.23722143709849      3.30667157078790     -0.03495479977319
  C   4.68954609493542      3.38169005396356     -0.03513026342694
  N   4.81164740968004      4.65414327266043     -0.03598984791680
  O   6.16856583987495      5.13123936424003     -0.03635277168989
  C   7.20039591858121      4.28362302727857     -0.03549870952290
  C   7.10380035504781      2.93840062442827     -0.03455210462965
  C   8.30156761968264      2.16517417838149     -0.03387718083548
  N   9.28125290731372      1.56260550927986     -0.03385958956958
  C   5.76819357810788      2.39578346231135     -0.03446464343630
  C   5.17711772852422      1.18258198396626     -0.03399752261284
  O   5.80105850552068     -0.01189854084615     -0.03335713796253
  C   4.99484280250344     -1.13240982885143     -0.03317038394430
  N   3.71378957474343     -1.11931567328758     -0.03356178927324
  H   1.47246310185556      2.63543270265386     -0.03466234940672
  H   8.14621424717100      4.80897433782197     -0.03569491434320
  H   5.58029403776787     -2.03768999951198     -0.03272908828660
