25
Coordinates from ORCA-job 7748optt
  Br  1.41478962297869     -1.85166499306053      0.35028870215932
  C   2.38635565694110     -0.26148538554303      0.04232494567941
  C   1.80255128843726      0.85804912480412     -0.46935479316900
  C   0.28739218576716      1.01756656257945     -0.61565748880720
  N   -0.19644485268242      2.39996595550372     -0.66887316291664
  C   0.57813642239928      3.27905304152619      0.12127001730199
  N   0.94642964609230      2.91728967157348      1.32940775417220
  O   2.03454751981111      3.80456292099749      1.58333507427893
  C   2.18402207941512      4.60387629038592      0.44850009240362
  C   3.58761345790381      4.64435010088365     -0.09416045981348
  N   4.32230383838760      3.31305942490519     -0.19562447377668
  C   3.68936434072951      2.10841477261769     -0.22336061877284
  N   4.31319922282827      1.05163158744644      0.40151166784825
  C   3.76673559634737     -0.23787742602138      0.47374265224176
  N   4.40117272732524     -1.24899270543244      0.94043701645092
  N   2.54262279086133      1.95249827367307     -0.79718934201654
  N   1.18052851065087      4.32448373723580     -0.43751838231562
  H   -0.15943428600521      0.51571006247880      0.24246765715479
  H   -0.06867453882553      0.49369748750839     -1.50669785864282
  H   -0.13452414619361      2.76207419082126     -1.61139645633512
  H   4.25772208725412      5.24430244918936      0.52490301965679
  H   3.52848347770933      5.08870023950482     -1.08597579993607
  H   5.17126585798971      3.30197956292829      0.34824031608088
  H   5.15832767585120      1.20995182511374      0.92676611974523
  H   5.34551381802635     -0.99119677161955      1.21861380132791
