23
Coordinates from ORCA-job 7756optt
  Br  1.10014462722645      0.09551877384434      0.36257035143765
  C   2.89054841801810      0.06688357072403     -0.24756189078721
  C   3.56641056219948      1.21722969884935     -0.33123080689164
  C   3.46381027087519      2.58604695983651      0.31988581515891
  N   4.85247904747703      2.84832624637614      0.80442183543265
  C   5.54967128656341      1.97899985838466      0.19392544246330
  O   6.81997245812447      1.58232269547215      0.34706581325986
  C   6.98200416303663      0.29386878797954     -0.36371680680395
  O   7.52587556812776     -0.65448253817449      0.52099975836529
  C   6.97256220276862     -1.89931215865249      0.71574746897312
  N   7.43645590887552     -2.63542036643745      1.62840983621957
  C   5.87406271688998     -2.35904139955961     -0.21482760996899
  C   4.95850395202652     -1.21658328912193     -0.51631700477767
  C   5.61846052343094     -0.03954155385574     -0.86082816261733
  N   4.90484535645580      1.17742072246155     -0.73495837480363
  C   3.55137076301310     -1.29007714722960     -0.35776695513242
  O   2.88953507241832     -2.33333431057856     -0.18837133287313
  H   2.76139215329545      2.57735927207961      1.15179228502001
  H   3.15782957255575      3.36630778232829     -0.38503978190815
  H   7.75452791242597      0.50189333119863     -1.10663230480266
  H   8.17311756929718     -2.13747261875078      2.12840673105593
  H   5.34354562602150     -3.17849412339626      0.26210572149713
  H   6.35587426887674     -2.74541819377788     -1.12308002751663
