22
Coordinates from ORCA-job 7763optt
  Br  1.48803817797821      0.25279507045736      0.01282293713082
  C   3.33572132707205     -0.13267822334189     -0.00998977776153
  C   3.83487100429985     -1.41194747210436     -0.10097145464231
  C   3.05229934541140     -2.57974232523628     -0.23662927900353
  N   3.56390859227083     -3.81770073293607     -0.29806947567075
  C   4.85105584269932     -3.93331582421116     -0.14035323720404
  Br  5.49109361198941     -5.76064621251318     -0.13217714662985
  C   5.79136997562073     -2.89838385000861     -0.01050634020631
  C   7.08254487392963     -3.13905217982993      0.61097771550150
  N   8.14392563389610     -2.42533422707940      0.60383552694201
  C   8.25654956012182     -1.34656229164815     -0.28747078048862
  N   7.43977428175564     -0.43429251715315     -0.59775278706652
  C   6.08983015289112     -0.42113719059364     -0.19796444729225
  C   5.52401703797454      0.91714133000839     -0.15311667200608
  N   6.13665029761925      2.04108808563401     -0.25016754513375
  N   4.14625767381710      0.96696803635852      0.04040110104867
  C   5.29115327177306     -1.54530345544495     -0.10647491533638
  H   1.97608747176392     -2.49891644876408     -0.31216817371557
  H   7.12253445771363     -4.02682542247789      1.24345206721044
  H   9.25426753987829     -1.27868344430237     -0.72084396028688
  H   7.12572931115660      1.85170457751680     -0.38577118588721
  H   3.74932055836744      1.89282471767003      0.05893783049813
