23
Coordinates from ORCA-job 7764optt
  Br  1.52236559012243     -1.46752553270766     -0.62485567110008
  C   3.34622295905198     -0.93678904225109     -0.64174369166057
  C   4.10715839485563     -0.85826145717397      0.44785503468451
  C   5.54892894184159     -0.50744808584821      0.30169706491253
  N   6.28675348076592     -0.10941669796067      1.30352730569517
  C   6.01517070958677     -0.81964187118828     -0.99316916446655
  Br  7.88486342792367     -1.06059825608506     -1.25211695415813
  C   5.17125224366978     -1.12688715923892     -2.06426010005009
  O   3.81573133732324     -0.78320666380900     -1.88940779623635
  O   5.32655516273965     -2.38269140782583     -2.72258972905387
  C   5.29861264687950     -3.42107957601269     -1.84831218718939
  N   4.50161111643389     -3.43058856103809     -0.88398611834282
  C   4.68814248067959     -4.26260104385411      0.26704965052189
  C   5.11404841274696     -3.38982584942224      1.45317527769105
  O   4.04936532534749     -2.66372243175669      2.07822382084832
  C   3.62016644134099     -1.41937911109688      1.74063107587055
  O   2.84918303221653     -0.87832704536738      2.48014481341361
  H   5.71063763638160      0.01010201616377      2.13444722125948
  H   6.06751413052374     -4.17465419734728     -2.05513805337376
  H   3.75115821928326     -4.76476903988501      0.51975650618087
  H   5.47000869131484     -5.02616577015663      0.12720572246608
  H   5.47816532892013     -4.04015612738085      2.24975603920109
  H   5.92038429005069     -2.71836708875719      1.15710993288644
