26
Coordinates from ORCA-job 7777optt
  Br  4.60424243108172     -2.76375066875928     -0.54709917575904
  C   4.11777192032286     -1.37568525093351     -1.84149448171536
  C   3.68872551997917     -0.07270391576790     -1.30743999151118
  C   4.89123586500185      0.69175270307414     -0.79081232540596
  N   5.88429315660154      0.89537430953328     -1.87196094094600
  C   6.25057262710828     -0.35537786768540     -2.55165404212253
  C   5.04301790183471     -1.18065917410053     -2.96985973110799
  C   4.55405680011020     -1.23692634825680     -4.21837189614486
  N   3.29576262980609     -1.74622125979693     -4.56849426556888
  C   2.75367476638403     -0.65600733623662     -5.27250594087530
  N   3.66244058009092      0.06051156087382     -5.82862277262443
  N   4.91005682393064     -0.52956399915890     -5.38698875924197
  H   5.56208687372996      0.22398382354284     -5.21994686661422
  O   1.46472242109496     -0.37587356246957     -5.18309662952979
  C   1.32194066480894      0.63249316005475     -3.95762377494004
  O   0.99556252676041      1.72998381311169     -4.28500498280962
  C   1.70765153302452     -0.02120513972235     -2.78093684749985
  C   2.63683054335491      0.57766950542622     -1.88417619961628
  H   5.39409976894910      0.15413038906707      0.01842934755777
  H   4.60003659451126      1.67418377684165     -0.41482945352483
  H   5.43504346998738      1.49243114229033     -2.56203818333330
  H   6.86233649702792     -0.94167489591641     -1.85860914663007
  H   6.88331887858269     -0.11438876894981     -3.40890468228367
  H   2.74625040372663     -2.11611202842679     -3.81197314419223
  H   1.68030359175470     -1.09576940016411     -2.79581713149686
  H   2.58796521043451      1.65940543252913     -1.75816798206345
