26
Coordinates from ORCA-job 7783optt
  Br  1.43586560007118     -0.29515634447270     -1.89810741437361
  C   2.94036014854423     -0.04860884230404     -0.72900069441381
  C   3.38121884274310      1.27851883966662     -0.36414149931518
  C   4.81927357455070      1.32134839696332     -0.16093312439228
  N   5.52891214360918      0.24363536889716      0.11763315060093
  C   4.95364149942954     -0.95857587607182      0.12977244994469
  C   3.67416010763809     -1.16466449834938     -0.41340915129178
  C   3.18092480781666     -2.56123909102465     -0.72950845403125
  C   3.91194123907830     -3.63998387929087     -0.06897690302270
  C   4.48833962072547     -4.54555921125629      0.46547757558048
  C   5.69235175425802      2.52032429039517     -0.41382522952360
  N   6.85576858145732      2.45612997248577     -0.90469025308046
  O   5.21399352526545      3.75565501208388     -0.14024321739060
  C   4.22732790745184      3.85924232015008      0.87350042980394
  C   2.83951235091883      3.71342214801339      0.30746094797035
  C   2.42274142223417      2.32204935430275     -0.14549827544317
  O   1.19733236262193      2.14915787817246     -0.26544966321040
  H   5.55440978440004     -1.79661478564253      0.45813134997627
  H   3.21656377571257     -2.72274308706200     -1.81111548109556
  H   2.12634360429447     -2.64080241021767     -0.45691773392782
  H   5.00502564383982     -5.33992059528388      0.94614459692260
  H   7.06450982565682      1.47511801736918     -1.07516775360544
  H   4.36260946108461      4.85142553829448      1.30701633917787
  H   4.41426071866362      3.11883540179534      1.65721708284323
  H   2.72490919194950      4.40474201897987     -0.53340441598270
  H   2.10270250598438      4.00826406340636      1.05903534128003
