21
Coordinates from ORCA-job 7785optt
  Br  1.09218947609211     -0.41306609335492      0.32288512148428
  C   2.95717461519371     -0.21186096252274      0.04640808792430
  C   3.57803022767533      1.01481289129256     -0.04264833266788
  C   4.99032451110447      1.07112433436556     -0.36000248922454
  N   5.65663848035213     -0.08824250915530     -0.65452279336164
  C   5.04537859646857     -1.22425307311148     -0.53989133639755
  C   3.69282839042686     -1.39702868329996     -0.14270996683381
  C   3.15904602323694     -2.69778234709374     -0.00531884911270
  C   2.74412371252110     -3.82363894342951      0.10893717305145
  C   5.78349367335234      2.26554007293631     -0.40076111807953
  O   6.93971157995853      2.33304490104779     -0.84234201769504
  C   5.21711881339257      3.53391521941901      0.16251459304504
  O   4.62431656340030      3.49570210043412      1.47389503330702
  C   3.79134474313764      3.75383563842307      0.38813050196398
  S   2.60898583655149      2.49735684990259     -0.02631035944700
  O   2.15965736049253      2.80293771566065     -1.36165411352022
  O   1.63568722162442      2.49002293287981      1.03276709925767
  H   5.61659117520055     -2.11844992686211     -0.77824627777693
  H   2.36044354395629     -4.80797683598888      0.21720242419784
  H   5.85116474992134      4.39601477325039     -0.01268180300572
  H   3.32575070594072      4.73399194520678      0.31834942289099
