25
Coordinates from ORCA-job 7786optt
  Br  0.82620900790336     -0.38113539119500      1.35679377777373
  C   2.61221734739940     -0.20022380845431      0.74421555959583
  C   3.39498990307756     -1.34770419329116      0.39845984103411
  C   4.75879217798965     -1.18711596559397      0.09481132149632
  N   5.25345485622331      0.11251715578146      0.14358475200886
  C   4.49159255821524      1.22541690325872      0.47493165063102
  C   3.17390845443369      1.07577718399883      0.78082343063384
  C   5.67452559749634     -2.17107237909008     -0.38019437592280
  C   6.90112309331412     -1.67363449713273     -1.12286373232383
  C   7.93583136861823     -1.45656403973136     -0.06318442085440
  O   8.32550472315356     -0.36634436030871      0.29659993204277
  C   5.61830538493000     -3.58080294959952     -0.14948226463261
  N   6.48042376231568     -4.49657722798925     -0.50314464042958
  C   4.52820207012042     -4.13378872074941      0.69027610117924
  N   3.33065811515119     -3.74338848991850      0.80472149357128
  C   2.75999208907125     -2.64714943966843      0.15049965120471
  O   1.72814288498494     -2.78641347897323     -0.47321737391596
  H   6.25206044105438      0.24106396752300      0.10834664727249
  H   5.00541184618713      2.17355492407078      0.45789159597472
  H   2.57761214704764      1.93534719189496      1.05061873644368
  H   6.71691490452828     -0.74207534573329     -1.65776604154799
  H   7.22904550501923     -2.42080637492821     -1.84774736061152
  H   8.26314197011332     -2.36879251147473      0.46739895566068
  H   7.24283436934555     -4.11518169042018     -1.05397736587521
  H   4.82810542230644     -5.01790646227564      1.25260412959061
