24
Coordinates from ORCA-job 7788optt
  Br  3.64942361562867     -2.83589225898818     -1.43681674334830
  C   5.06003330103861     -1.55766607269464     -1.79932613701339
  C   5.22129611669374     -0.97738015087111     -3.10234739732900
  C   5.64181389036224      0.45792626066132     -2.93503632091021
  N   6.95262450159991      0.46239514005137     -2.20550782498578
  C   7.09371342438644     -0.52763498644598     -1.26111486094672
  C   5.85828894286960     -1.17441869070109     -0.78117160729174
  C   8.08424565894004     -1.54434768482927     -1.39328619745431
  C   8.55734840574976     -1.96546702026119     -2.60196109840395
  C   8.83008071123343     -3.39282467166558     -2.72074804026532
  O   9.43551963766262     -4.08397709207323     -1.94753127661273
  O   8.26141021187568     -4.02122280574007     -3.81618863385735
  C   7.31848215792933     -3.43715547179223     -4.62481913261586
  N   7.50530827119208     -3.46792021786553     -5.86285093710480
  O   6.24894207950818     -2.97237413294523     -3.93586613710788
  C   5.85189441771712     -1.60627489590329     -4.19459577869502
  O   6.18872401884072     -1.10319543314402     -5.25098424000303
  H   5.79390405236931      0.95697450685985     -3.88908856288607
  H   4.92727678813982      1.02123676014792     -2.33425951759139
  H   7.74814435547343      0.52994296927011     -2.82751815393803
  H   5.76599874806900     -1.55818699446897      0.22576639300434
  H   8.19012937199923     -2.23068581126416     -0.55925693237389
  H   8.33131315069588     -1.41829607388883     -3.50968470766630
  H   6.71508417002502     -3.02455517144795     -6.32180615460320
