26
Coordinates from ORCA-job 7795optt
  Br  7.65078543451122     -1.29600583119840      3.06693713284105
  C   6.74724341659699     -2.32788005361566      1.65526189064955
  C   6.07607577829327     -3.49075099722274      1.99986065209895
  C   5.25905080753356     -3.98969594194961      0.85100823719740
  N   5.99417459661176     -4.01002173828131     -0.45596654703631
  C   6.96823594490889     -3.02527480132179     -0.60923506616258
  C   6.94815951616222     -1.93991211279174      0.35477368082657
  C   8.09048643309704     -3.30510506927243     -1.39535872430424
  C   9.31161242849883     -2.65647208283090     -1.34580808204906
  O   10.47896469372251     -3.39421043516784     -1.60354295931918
  C   10.90409549385507     -4.30680445765385     -0.67334745486159
  O   11.76906426354838     -5.08434994037986     -0.97684335397177
  C   10.20738646441828     -4.25503671900594      0.62709878879600
  C   9.97078220703623     -5.33524960003383      1.38814434943267
  N   9.02094384104305     -5.31232472439471      2.41771547242911
  C   7.93883080702069     -4.77592814948978      2.00948031230808
  O   6.86401305512046     -4.46876765807793      2.73211831320825
  H   4.88206000280351     -4.99758324718215      1.02801571443337
  H   4.40864812278187     -3.31928475202412      0.71665872930179
  H   6.31895755640275     -4.92756880881837     -0.73337460136441
  H   7.36355148136352     -0.97556572629922      0.10030556103553
  H   8.08410484019176     -4.24378552659258     -1.94697752637811
  H   9.48155554341074     -1.72190488401826     -0.82901179575344
  H   9.71103186101043     -3.33113123407420      0.89327969746561
  H   10.46940863160668     -6.28018118272225      1.19529259578439
  H   7.83977677844970     -4.52520432558025      0.95751498339235
