27
Coordinates from ORCA-job 7802optt
  Br  2.04615661339558     -0.06906270611268      1.30189988515592
  C   3.44719876803328      0.82473447530189      0.35503789322534
  C   3.62990099529895      0.77608868970590     -1.11063679341695
  C   5.10628415129018      0.82873527643154     -1.45586288451338
  N   5.68975495551226      2.12380111572307     -1.04134037114348
  C   5.30184233939718      2.45263420128643      0.33671327165530
  C   3.83655307397701      2.20101447307560      0.67696263470380
  C   2.89828982174262      3.16825499419086      0.69846406756469
  N   3.20192968056374      4.47323520151178      0.26781807344598
  C   2.87550712948355      4.86489145431819     -0.89288055934280
  O   2.17180987718634      4.25549370496980     -1.87009233756283
  C   1.11877204688765      3.32503346583739     -1.48554157377817
  N   0.00419299331533      3.83558042622710     -1.10055211712830
  C   1.49967867018278      1.97609126038924     -1.49465063772205
  C   2.77853784339761      1.51567958288944     -1.88716244362567
  C   3.34456493251987      6.16782991897400     -1.33325775078268
  C   3.73705793559259      7.23569916370409     -1.70795050053120
  H   5.26058686831659      0.71867498658609     -2.53074508054006
  H   5.66298023253518      0.03554857390802     -0.94941406141519
  H   5.27028971758577      2.83081771252116     -1.64053135301258
  H   5.54901767755767      3.49615393091449      0.53041656986425
  H   5.90796584572405      1.82716574179259      1.00037634345087
  H   1.86694040913045      2.95857383456567      0.96035441970072
  H   0.06631461148833      4.84846358060901     -1.06987462545624
  H   0.87058757351749      1.34745802413684     -0.88130793754879
  H   3.20646599042131      1.92891757267905     -2.80497274083849
  H   4.09181924594655      8.18249134386337     -2.03526939040797
