24
Coordinates from ORCA-job 7805optt
  Br  1.11248193759958     -0.17823972034393     -0.00306179574168
  C   2.99463897106462     -0.02046640921671      0.01261117064186
  C   3.62539197019090      1.20787631805224      0.00452167662560
  C   5.00999299592924      1.19818525785404     -0.03589036570196
  N   5.79888191492038      0.13688255772768     -0.02714140685781
  C   5.16628350368605     -1.03331531575394      0.00677971493171
  C   3.78096901066839     -1.16403808561990      0.02143572240476
  C   5.47228999772274      2.60854882593375     -0.10091508740441
  N   6.64962092972643      3.06414794528419     -0.13286965657169
  O   4.38351936095342      3.38786098500519     -0.10656256939393
  C   3.12797764202982      2.61497629638349     -0.04729720303067
  C   2.31690136117409      3.10320629518416      1.15669446043565
  C   1.38653075973763      4.18034990898211      0.59514774383833
  C   1.21467768852423      3.82800300348433     -0.88235089449010
  O   0.32270513620217      4.31207753706728     -1.58885003392446
  C   2.25537227810419      2.90375622807767     -1.27365828582343
  O   2.49556185087818      2.38839779853730     -2.38288505058396
  H   5.78707616719173     -1.92267382483537      0.01475463784180
  H   3.32427123952063     -2.14369225329332      0.03102426607824
  H   7.28930820330580      2.27103972440611     -0.12270557588735
  H   2.98645348494233      3.45285460999088      1.94414577102541
  H   1.73187686246968      2.27013578926011      1.55003200946313
  H   1.83140064223524      5.17643569202457      0.67952043249737
  H   0.41681609122249      4.20869083580803      1.09452031962759
