24
Coordinates from ORCA-job 7812optt
  Br  1.17552615470272      0.54459943135877      2.05874754039223
  C   3.37588308113150     -0.26178089104640      0.95804967206845
  C   3.36751563517973     -1.34685311409442      0.12897014439317
  C   4.28898242072328     -1.40531948813893     -0.92964958664239
  N   5.18714325806463     -0.50535323415357     -1.22148875628200
  C   5.17416064000790      0.57278852964472     -0.40809877988519
  C   4.30504964421762      0.73846350000043      0.65577796056512
  N   4.12492552284709     -2.67716844156118     -1.66575987792794
  C   2.63291194084141     -2.83529381391054     -1.48509329680023
  C   2.58046138587997     -2.66161494568562      0.06232645838433
  C   1.24952891312633     -2.77877155618071      0.74555449882300
  O   0.31677008728803     -3.32275597464168      0.21101772152654
  C   3.62866264345705     -3.72064580130410      0.37667912607685
  N   3.97169572155121     -4.58435837157406      1.29816066429908
  N   5.12579830818216     -5.10067137524957      0.81486106928986
  C   5.50747770309666     -4.57663436071287     -0.39055787561524
  C   4.53867344369062     -3.67107062482716     -0.69811459707252
  H   5.90734946390587      1.33984466995292     -0.63894998998437
  H   4.34586122830724      1.64714773698020      1.24526720060316
  H   2.30794156035572     -3.81690905680327     -1.82197821806532
  H   2.10178332942998     -2.04168198490628     -2.00664752594595
  H   1.17623188590072     -2.35328490807366      1.75711880361816
  H   5.58798215751908     -5.82149264418948      1.33751342770758
  H   6.40968387059336     -4.89618328088348     -0.88270578352637
