24
Coordinates from ORCA-job 7816optt
  Br  2.16973132475055      0.97962076479570     -1.65202449003289
  C   3.46999333759827      0.45492888309896     -0.35449498144658
  C   3.53021530177344      0.99842252510667      0.96069014300962
  C   4.03553758729952      0.07024168277164      1.92037726893078
  N   4.71583211276743     -1.00872626960193      1.61614292726337
  C   5.07240840584059     -1.16067076718976      0.29712157266305
  C   4.47362088949063     -0.46356492255366     -0.71140216218640
  N   5.03358560332041     -0.35846692079213     -2.04412228313252
  C   5.30094986312104      0.97787763281405     -2.35001008939260
  N   5.69240071675826      1.76819025819794     -1.44933530902442
  C   5.58517754377566      3.18881412233007     -1.57946624054081
  C   4.96736969076378      3.71142442729898     -0.25661552666371
  O   3.70640260833728      3.14735589508816     -0.01437238247545
  C   3.62852052118120      2.40424231690619      1.20536220959771
  O   3.71312872135767      3.00435419997865      2.25605550369521
  C   4.88054319187296      5.18822333314299     -0.32396800806029
  N   4.86185048035059      6.32939314075823     -0.43281057382164
  H   3.92476781834363      0.29801941479156      2.97868392830066
  H   5.91304090344492     -1.81244092677156      0.08918902588035
  H   4.49344344831738     -0.81192019948975     -2.76740311509220
  H   5.06754012683058      1.27751766210806     -3.37897028504085
  H   4.95253906965033      3.50578613443259     -2.41890499770154
  H   6.56808722612939      3.66150026785584     -1.68285337572370
  H   5.65531350692417      3.46287734492239      0.55713124099488
