22
Coordinates from ORCA-job 7823optt
  Br  1.91232327050161      0.31841018197844     -1.41644520560055
  C   3.46083644458285      0.35109542045975     -0.23596465560224
  C   3.45565379493047      1.04014326823738      0.98427195401056
  C   4.17577439546913      0.49620744347243      2.03382065880680
  N   4.95716886806769     -0.59147041916300      1.92082926207652
  C   5.22958175185156     -0.97765207502364      0.65980304067027
  C   4.55279630342208     -0.50833479154845     -0.44215446235898
  O   5.22264631624141     -0.40202071576698     -1.70722387845321
  C   5.72842925122004      0.88463408026514     -1.67390298320794
  C   4.92057809477529      1.92450910601307     -1.86231056655516
  O   5.32383057936553      3.20039692582247     -1.46364579823548
  C   4.89779854760330      3.68205671471860     -0.26367452506712
  N   4.01676490437405      3.38654071769058      0.57295831195018
  C   3.02195784043927      2.46220944482238      0.94574930240099
  N   1.85946290635402      2.85339579514281      1.27464574339822
  C   5.70999338443736      4.86846777894345      0.03115216604718
  N   6.32275316339196      5.80706376558642      0.27375316464720
  H   4.17967765895754      0.99873306469787      2.99762564348110
  H   6.08456597679348     -1.63662913190069      0.52221302368919
  H   6.72497388144216      0.99843267484342     -1.25655106468993
  H   3.93628336409611      1.86859412363418     -2.30373981379389
  H   1.79614930168303      3.86721662707434      1.17579068238628
