31
Coordinates from ORCA-job 7828optt
  Br  0.88032490294122     -0.66335790191317     -1.18095229709132
  C   2.56233925164854     -0.24506442156025     -0.33279918948407
  C   3.55158413828311     -1.23622631693336     -0.13674058651493
  C   4.87911653076288     -0.85790161690852      0.18947475686964
  N   5.76529036215232     -1.98383504458499      0.18691063244201
  C   4.97244695224372     -3.09061523720585     -0.33695152452737
  C   3.49080891873485     -2.76258423724607     -0.06113815599635
  C   2.56803072403471     -3.62288646650855     -0.97811351212053
  C   1.75445698864902     -4.46037107035280      0.02129707320244
  C   2.80049303680643     -4.76983427685025      1.09266206841164
  C   3.08596162969682     -3.28237462682013      1.35644767114376
  C   1.67232810227320     -2.80632817507416      1.69067366224742
  N   0.81567059849017     -3.61430843477309      0.78041256774642
  C   5.31709365376102      0.39177593660770      0.49395352683382
  S   4.18798708031425      1.70249616422150      0.72921007958444
  C   2.69761358349160      1.14951947592089     -0.11765576414996
  N   1.81335803001480      2.05261078451984     -0.40821986180902
  H   6.09385326910401     -2.17405998567283      1.12663438524002
  H   5.29196682861939     -4.03766472655426      0.10324534146516
  H   5.11770906593560     -3.15134497284334     -1.42050670482473
  H   3.18065691280668     -4.27826796317991     -1.60764107582635
  H   1.93726707459055     -3.03130601301394     -1.63300919614410
  H   1.24576526859154     -5.31877388977731     -0.41789277293753
  H   3.65244308039074     -5.32857292697866      0.70622658394805
  H   2.37517695972254     -5.28542511119099      1.95525273235068
  H   3.82818379885650     -3.04379766951471      2.11973305649121
  H   1.54454462837049     -1.73672368332882      1.52650402466445
  H   1.42347058735211     -3.02827900932911      2.73327312628530
  H   0.32959367693265     -2.98991318346843      0.14774586931002
  H   6.36588823287333      0.62670244799431      0.60433971834067
  H   2.16157613155516      2.97671215231929     -0.16837623515087
