26
Coordinates from ORCA-job 7832optt
  Br  1.02928174609672      0.09303990934257     -0.23178562037465
  C   2.93074507939769     -0.04068067459843     -0.05367079362348
  C   3.69498431031225      1.14725472303265     -0.08377331615060
  C   5.06575588785093      1.17508613316509      0.22275324149530
  N   5.49674278609861      2.52781662953114      0.37902622221299
  C   4.50289593600455      3.34266425615793     -0.31717841754814
  C   3.18771589890644      2.56385195999986     -0.10791453772028
  C   2.45740059495330      2.97066365135188      1.19708502503433
  C   1.30448221780891      3.84218010600085      0.76422290402943
  N   0.51534304548969      4.58268743294052      1.42897751545899
  N   1.20047633517605      3.70815876859701     -0.60199291244703
  C   2.20694785828928      2.96979389274890     -1.20635477538909
  N   2.36869831236750      2.73732886974138     -2.43821362265016
  C   5.85373573249891      0.08636889545607      0.43674441477259
  S   5.22511053396797     -1.53736314232899      0.28498281174031
  C   3.40806791683885     -1.35166383501270      0.09716929132797
  O   2.79086669647314     -2.41213053570226      0.10618916026277
  H   6.43485901401371      2.67442363145396      0.03027955689006
  H   4.69244063500863      3.39491351166149     -1.39426048615753
  H   4.45168881286845      4.35415964975437      0.09431268864921
  H   3.11466216432558      3.48566337588205      1.89773931458453
  H   2.05021768648653      2.08454817825235      1.68656353100492
  H   0.75289052970244      4.53629528520687      2.41589958908271
  H   0.44462558823588      4.14138590992734     -1.10824370167277
  H   1.60930249179235      3.12205286512537     -2.99780627263631
  H   6.88806218903560      0.16750055231271      0.74124918982394
