27
Coordinates from ORCA-job 7833optt
  Br  0.36574479630031      0.11619627364428     -0.16510375802036
  C   2.91130664049548     -0.19754014405892      0.17696945373812
  C   3.58670281304383     -1.36191491227690      0.05238744393306
  C   4.98958726426911     -1.32974138230611     -0.17432369539828
  N   5.46000331815766     -2.60736763025178     -0.32570910759036
  C   4.45575623817713     -3.56748588851633      0.14920723399534
  C   3.12004291572966     -2.79361147082867      0.04585354249164
  C   2.16187720865716     -3.11170990200936      1.18672873716197
  O   1.67435094934386     -4.44556740088274      1.06729622111399
  C   1.01441711217358     -4.61225881520107     -0.15237670156886
  O   1.87117917640310     -4.44068845173473     -1.24330997492436
  C   2.39166154496764     -3.11486648957599     -1.26418236903251
  C   5.66930925533526     -0.14225565463719     -0.23362755503945
  Br  7.54206372941875     -0.11644742351504     -0.47744977408243
  C   4.97621039622807      1.11235824356109     -0.10796444472976
  O   5.47006011291158      2.23139972417180     -0.15463293285361
  N   3.59344974386877      0.96079465092763      0.09086607432273
  H   6.44231697403110     -2.78026762000189     -0.17970351109455
  H   4.64686799492217     -3.85130608836411      1.19040367653047
  H   4.45268983872451     -4.47089327003918     -0.46043028892472
  H   1.32811462252927     -2.39977346257921      1.16001931445045
  H   2.66377669422156     -3.03777928881505      2.15138181134843
  H   0.18624954614971     -3.88950224158978     -0.22220992017361
  H   0.64644576821483     -5.63561916563911     -0.18600723726920
  H   1.57974638872339     -2.39037464822310     -1.39878644615373
  H   3.07625659690109     -3.05310963916212     -2.11059177972380
  H   3.08181236010131      1.83133209790364      0.15729598749337
