22
Coordinates from ORCA-job 7842optt
  Br  2.62251113152544     -0.86023903290990     -2.06716681419247
  C   3.84085124039046     -0.43871207816788     -0.65388950884716
  C   4.20297378417022      0.92077981657522     -0.42074055168289
  C   3.48491447823796      2.10789132241517     -0.65978501983654
  N   4.16016360529922      3.19635912320048     -0.25667580590519
  C   5.33648906951941      2.75505565201013      0.25389560700390
  C   5.43986072181187      1.37385041701348      0.18690951278959
  C   6.41484095180469      0.36376044906998      0.52295452131190
  C   7.62258815713946      0.11303915441958      1.12770230069485
  O   7.93849377288319     -1.23367584050115      1.17034291423261
  C   6.89076021671180     -1.86351237074920      0.56429271705864
  C   6.00651370171288     -0.93414950642216      0.16782428692700
  N   4.84615321505760     -1.39458773552904     -0.40124597768066
  C   4.90472525049979     -2.78529718770300     -0.30613741178946
  N   3.97637558581832     -3.57892050089688     -0.62591805462213
  C   6.32053528765236     -3.15698455117509      0.29977490476420
  N   6.76044839486276     -4.33170225259127      0.48978615240790
  H   2.50670367818976      2.18698329100955     -1.11310655318323
  H   6.06922648953643      3.45052271051475      0.64082479492499
  H   8.36050740874790      0.75561515360645      1.57489940897089
  H   4.26189132089465     -4.54247162360270     -0.45780122359935
  H   6.07547253753366     -5.02560440958650      0.18725980025258
