21
Coordinates from ORCA-job 7843optt
  Br  0.78076811524207      0.06752532083462     -0.24747003555672
  C   2.66127023941554     -0.00331021819099     -0.10787216978889
  C   3.43707741195995      1.14792236378892     -0.02194791253502
  C   3.08091616936548      2.50255041747335     -0.04101885507702
  N   4.16642871785014      3.30328831248875      0.06189793844095
  C   5.23606639066076      2.50021229185100      0.13225840291375
  C   4.88262527644961      1.13566232136031      0.08760130866596
  C   5.65715038933791     -0.05842097370718      0.05533859948984
  C   5.03139898015781     -1.33672929187746      0.05965792714135
  S   3.29128729852964     -1.58575946955176      0.21901037046384
  C   5.78609671739663     -2.49443274182945     -0.00132329992405
  N   7.12181478999229     -2.53198706792003     -0.03755832149950
  C   7.72743615519077     -1.35624108888930     -0.04002463679377
  C   7.07620794939570     -0.12051761649456     -0.00918324183967
  C   7.91572645417785      1.03254070044544     -0.05662546285852
  C   8.69330175817057      1.94738317764959     -0.10907879443478
  H   2.08080714995151      2.90452203330760     -0.11431775918515
  H   6.22631551348948      2.91432239763717      0.22160582951065
  H   5.27853465882207     -3.45487036424306     -0.01272471386797
  H   8.81215006647483     -1.36293401048612     -0.07826703005680
  H   9.34661979796902      2.78427350635320     -0.14895814322373
