25
Coordinates from ORCA-job 7848optt
  Br  0.88755198001249     -0.16656425933530     -0.00058017257007
  C   2.79838408850541     -0.06143986744921     -0.01053079864757
  C   3.51730434703593     -1.24778218121362      0.03374317534561
  C   3.10099790848514     -2.68787595037419      0.12717076721648
  N   4.28131137050826     -3.45974050582099     -0.32702274261286
  C   5.45787117278918     -2.62776103524154      0.02726891150165
  C   4.95221900735016     -1.20922533769161      0.00545902850303
  C   5.59142961328045     -0.00932507724202     -0.06440136630896
  N   6.98702176124715      0.17659785947499     -0.16274805492033
  C   7.36544712825329      1.54812374821756      0.12352263780658
  S   5.86131959625127      2.54418618989773     -0.12469065871534
  O   5.94867957057081      3.20497343634392     -1.41558634065752
  O   5.70306644626824      3.44763856943103      1.00177096682580
  C   4.84173285413975      1.19237829352461     -0.08657420533939
  C   3.40444166535720      1.16995712246356     -0.08100858640853
  C   2.77796889095065     -3.08927031074820      1.51913093285067
  N   2.52512955230218     -3.37427302826876      2.60198506467632
  H   2.22751550883367     -2.93563822723375     -0.47955547617854
  H   4.22066555185901     -3.47046782641353     -1.33942792434497
  H   6.27134833123024     -2.82409802258281     -0.67457570511926
  H   5.79729997168083     -2.92870431812011      1.02486804119715
  H   7.51438720078822     -0.50618352992575      0.36168219292495
  H   8.12129949509844      1.92735058243677     -0.56389422682616
  H   7.67099825076367      1.71292497359960      1.15998754662714
  H   2.82960873643812      2.08221870227162     -0.13399300682590
