24
Coordinates from ORCA-job 7860optt
  Br  1.25270337924170      0.43624392805519     -0.50776138818685
  C   3.08351836608747      0.10027038093122     -0.21302740142735
  C   3.58946896310917     -1.12571382676834      0.04315809449852
  C   3.06376586651321     -2.43116133636235      0.19414017334944
  N   4.05064571984972     -3.29414736802034      0.47346670117443
  C   5.22136806265160     -2.63545965855088      0.50972390929185
  C   5.04513122307891     -1.25504817594670      0.24306533278647
  C   5.83488957392495     -0.12010306109350      0.10627746154436
  C   7.34636398406559     -0.11260210055979      0.19138739249267
  C   8.02374474938561      0.17369274220597     -1.16949788310909
  O   8.62275968767048     -1.09537550275975     -1.52710630971057
  C   8.53908810971153     -1.84486755719195     -0.41007853752896
  N   7.90605621223716     -1.41687778787402      0.58876368530427
  C   5.22606485485848      1.11626260849081     -0.17201927599655
  O   3.82507296883659      1.20831612609294     -0.28777842101394
  C   5.84216523191088      2.37532250757253     -0.34986045800372
  O   7.06240875281086      2.63251083200864     -0.31809561163195
  H   2.03159753680027     -2.73617613101003      0.11822582212613
  H   6.13955758795393     -3.14422690549530      0.74300567299417
  H   7.64411515937533      0.64701877945785      0.91194783322895
  H   8.81035636859742      0.91907367460454     -1.08401820551200
  H   7.32335066586641      0.46317462075588     -1.94771300482245
  H   9.04482932736484     -2.80175134176970     -0.46622480564840
  H   5.11297764809776      3.18462455322712     -0.53398077619942
