25
Coordinates from ORCA-job 7865optt
  Br  0.95414837647826      0.18621975498496      0.06294354023621
  C   2.85296505078883      0.10534597702748      0.03900679039589
  C   3.60023259626797      1.26438451533080      0.06619146629123
  C   3.14236316221094      2.70112726545831      0.01798568076864
  N   4.34250050252320      3.50603704690579      0.32719214636826
  C   5.50476654489990      2.65626011862900     -0.01501842578952
  C   4.98729204062709      1.24355396360099      0.06521382072501
  C   5.69059436594264      0.01890237632105      0.03523932008390
  C   7.19868698879331     -0.01037390905916      0.01259592862678
  C   7.79718466100009      0.13843914877600      1.34286900660189
  C   8.26874852601408      0.27643769962140      2.43773516638133
  C   4.94261164685973     -1.13938658641296      0.04456677017044
  C   3.50405856720615     -1.16748760757887      0.03295529130656
  N   2.93834936567293     -2.37564703990944      0.00970971117126
  C   3.84230920352782     -3.35275403877491      0.04239649577006
  S   5.51436255190410     -2.78751117301463      0.07065014222762
  H   2.33432874110292      2.92255338002029      0.71677169700910
  H   2.77663430859413      2.94692293316216     -0.98547036466940
  H   4.36008224108842      3.62594979718127      1.33307290324798
  H   6.33786711219617      2.86641657769595      0.66233091820603
  H   5.84498460088481      2.91278020578430     -1.02910189015026
  H   7.57749948896510      0.79845153469185     -0.62076806204297
  H   7.54806462088508     -0.95027156528736     -0.42544897484649
  H   8.66714560471878      0.38871286907431      3.41626595098425
  H   3.61621913084748     -4.40306324422862     -0.03288502907379
