25
Coordinates from ORCA-job 7869optt
  Br  1.03444205090981      0.27221332967056     -0.16282775559564
  C   2.98402716955232      0.18881196203346     -0.07856822082376
  C   3.56897257486502     -1.07155200558915     -0.02218645918702
  C   3.06384814685474     -2.49342013046819      0.05591641731129
  N   4.24585327980573     -3.32042417765810     -0.26698313944522
  C   5.42429603188122     -2.51927230267553      0.12192099102461
  C   4.98266232922610     -1.08016236302534      0.01978610105517
  C   5.69609761047376      0.07741045753543      0.00386046467376
  C   4.98048750411216      1.31708330765565     -0.05659685399352
  C   5.65735115838791      2.56514523688809     -0.07553099398081
  O   6.89624961547031      2.70690876805778     -0.04301799324951
  N   3.59840873167679      1.31747794229915     -0.10156645747607
  C   1.96854527490380     -2.81661715826816     -0.93447899232180
  O   2.10142774737202     -2.89220687923669     -2.11877171182177
  O   0.77745513836736     -3.07291046003778     -0.30980648755148
  C   -0.35682197813961     -3.05818180263939     -1.07515993935148
  N   -1.46469701024868     -3.45961403173008     -0.65052598086828
  H   2.69588731251287     -2.74994604938451      1.05477911494496
  H   4.25529311519420     -3.39689770017403     -1.28047508464560
  H   6.27525766347971     -2.76640055688890     -0.51245324464298
  H   5.69617540966724     -2.75943887412452      1.15430146250371
  H   6.77735129970831      0.11185716147109      0.03446429378230
  H   4.98923026203510      3.44291361886126     -0.12162356483888
  H   -0.21588324754158     -2.64931169852470     -2.06964462843762
  H   -1.37591719052667     -3.80446559404736      0.30618866293566
