23
Coordinates from ORCA-job 7870optt
  Br  1.17981453891517      0.30410117947740     -0.26052388391523
  C   3.03951314373995      0.06217390420104     -0.05854619755371
  C   3.60157989896307     -1.15157344604073      0.17724444240814
  C   3.15175929482104     -2.49027369942279      0.33046743510098
  N   4.18279618232447     -3.29406250335833      0.52772370877055
  C   5.33010754441357     -2.54894650880923      0.51130504963517
  C   5.05646278750871     -1.20634392356167      0.30007072661182
  C   5.80989347428913     -0.02778618120245      0.15413118851541
  C   5.18290644437244      1.18037020852941     -0.07197734903023
  N   3.79023690337287      1.16731121438507     -0.17075095070407
  C   5.82365245556147      2.46151089943201     -0.23236665885558
  C   7.10174552935667      2.71809068527553      0.23922612935814
  N   7.79529928016775      3.84489616509080      0.15863940868973
  C   7.29987812079183      4.95338590206683     -0.41389873885330
  C   6.03524603935411      5.16792014211266     -0.99758149829142
  O   5.58687045197242      6.19061481413386     -1.49424106374520
  S   4.90930245761871      3.72143257431590     -1.05288148520530
  H   2.13266547832763     -2.84613328449159      0.30123673564740
  H   6.29414042617066     -3.01389805322085      0.64941563551824
  H   6.88954811582304     -0.05395644817218      0.18066365609696
  H   3.32905919336684      2.05909739432556     -0.30529776306941
  H   7.60004046638504      1.91138995650643      0.77039664883429
  H   7.94248177238337      5.82867900842732     -0.42245517596339
