24
Coordinates from ORCA-job 7871optt
  Br  1.14171519686979      0.29796490238342     -0.17855645034146
  C   3.00570600868299     -0.01981705899257     -0.10709753104241
  C   3.53496869557713     -1.25305288228524      0.09395995403181
  C   3.04854008050217     -2.56960757298552      0.31133841091087
  N   4.06221381054010     -3.41312875950622      0.41975624983729
  C   5.22989566951019     -2.71532579756462      0.28027117665184
  C   4.99318852523598     -1.36498723758377      0.07385725258318
  C   5.78758109829342     -0.21612135358740     -0.10862304378870
  C   5.19025565584721      1.01035291550891     -0.26523801643222
  N   3.79032560817734      1.05444709190574     -0.27787424230761
  C   5.84069614868681      2.29750465764752     -0.35813768255277
  C   5.25486120357133      3.49241095311273      0.02059658963575
  N   6.16919236388104      4.45980464856913     -0.13668530628910
  N   7.35676601711604      4.01913777166828     -0.59189282802103
  C   7.19618728274335      2.66682104686918     -0.75532226756810
  C   8.25315172937561      1.88767467855711     -1.28464968495484
  O   8.23474192823192      0.65046262874000     -1.53271917703989
  H   2.01767416351863     -2.88473958149574      0.38111322586997
  H   6.18448497155516     -3.21499003652384      0.33422872434389
  H   6.86753915749841     -0.25358574721433     -0.16747056917581
  H   3.35795981739541      1.93493838905244     -0.50972988526641
  H   4.28546341762994      3.71047541814381      0.44362699268662
  H   6.06243775660993      5.43068912448905      0.09239675937786
  H   9.15645369295001      2.48367180109194     -1.50014865114873
