17
Coordinates from ORCA-job 787optt
  C   1.06954657638264      0.10133781263282     -0.33739391546843
  C   2.54656984164544     -0.13528889942091     -0.20899789097265
  C   2.86388403856973     -1.58094492448405      0.06171946794470
  C   3.33869509410189      0.93243837144212      0.26043492518366
  C   4.75091615252092      1.03184886322451      0.33779617983614
  N   5.50613615565691     -0.02749701057328     -0.23199711017370
  N   5.47027043377046      2.01873554713819      0.83610219168994
  H   0.84378249048454      1.14296437178584     -0.57641444008963
  H   0.52792939239912     -0.14792848493167      0.59869426646533
  H   0.62071895322267     -0.52399536143722     -1.11836329341683
  H   2.34461936946431     -1.92036757900589      0.98280663141082
  H   3.92574020878531     -1.76014343171492      0.21773349059631
  H   2.51065428442628     -2.23991145753379     -0.74103702741255
  H   2.82756649847446      1.87366744000969      0.46167077643176
  H   5.05721420054329     -0.38061694959404     -1.07119760073490
  H   6.43844139024553      0.31557544894952     -0.42553272303281
  H   4.83831491930645      2.68312624351310      1.27697607174283
