23
Coordinates from ORCA-job 7880optt
  Br  1.14317393211154      0.02717071062899      0.00290911783437
  C   3.03611334066494      0.13542764427000     -0.00287521462989
  C   3.76113129570857     -1.06416452457306     -0.00393832885638
  C   3.37267456424051     -2.42239621994388     -0.00359672434515
  N   4.42871893037885     -3.23629610548846     -0.00603498270446
  C   5.53114472522737     -2.42898579429170     -0.00781528512224
  C   5.19554146922238     -1.08745470038016     -0.00671580166002
  C   5.98691134923053      0.13007201385246     -0.00769346483688
  N   7.26471054060201      0.23777293288416     -0.00865633807783
  C   5.16855612123109      1.37051069091891     -0.00768166417798
  C   5.60458994263850      2.63851858264399     -0.00964152820574
  C   4.44465064670814      3.55153317114444     -0.00935050433134
  N   4.43885580099001      4.83815621251455     -0.01104518326425
  C   3.25100051251181      2.70217344998296     -0.00692686259854
  C   1.95389523951870      3.24000950317066     -0.00797070564647
  C   0.86914025109101      3.76534077164257     -0.00964286280115
  C   3.68149608085819      1.36145122058957     -0.00551272395512
  H   2.36078694598251     -2.80240901544321     -0.00194455814323
  H   6.52209614548159     -2.86366907710519     -0.01002817553806
  H   7.68294673433942     -0.69248025976948     -0.00853613102529
  H   6.63847812946893      2.95254518479697     -0.01121909406442
  H   5.40123230221255      5.17649823350101     -0.01264694719720
  H   -0.09484500041918      4.21067537445393     -0.01043603665272
