25
Coordinates from ORCA-job 7881optt
  Br  1.11741647934884      0.00570721507694     -0.00582273458513
  C   3.01388546483167      0.01581883986362      0.04504357182060
  C   3.71737112840266     -1.19854773842977      0.02363900069915
  C   3.23371298409238     -2.61913445334803      0.10442154865308
  N   4.43783061597685     -3.44268633793675     -0.14206121446648
  C   5.59343047087008     -2.59998426735037      0.22578492535025
  C   5.10224627545022     -1.17910043066899      0.08618708601122
  C   5.79889303267040     -0.00303430331847      0.12679900958060
  N   5.08617993800984      1.21921690791910      0.07857221931493
  C   5.84062055250629      2.35930826404383     -0.04340079545770
  C   7.17210839558383      2.50847925128094     -0.22030684309678
  O   7.46522424489058      3.87009235642172     -0.24934896174612
  C   6.30843497656190      4.56794810496240     -0.09968410981274
  O   6.24383476212208      5.77366429018904     -0.10167455991587
  N   5.31976040761468      3.64535243531407      0.04502121789338
  C   3.64326972760271      1.27142646264871      0.06381839874935
  O   3.08605673111203      2.38128882225627      0.05777095870384
  H   2.44848846270171     -2.86247256520395     -0.61470856969627
  H   2.83103666510207     -2.84355233706318      1.10104920756325
  H   4.48818542065288     -3.59176986067513     -1.14287646727690
  H   6.45411743942761     -2.83939666825538     -0.40194242276223
  H   5.87621875232466     -2.80755943024648      1.26393009440251
  H   6.86475042196227      0.07488721476086      0.26494257274282
  H   7.98735257653525      1.82666786980805     -0.35001145430304
  H   4.31857407364641      3.79238035795096      0.10385832163429
