22
Coordinates from ORCA-job 7886optt
  Br  1.58573202913430      0.77741560936280      0.83599224704690
  C   3.14650940955457      0.15899546918568     -0.20336667239935
  C   3.64170125833842     -1.14382658675077      0.00730483320349
  C   3.09274293772995     -2.40965614144108      0.18856629796790
  N   4.06247524212291     -3.35067398626466      0.29672931634202
  C   5.24440982416704     -2.71901860661982      0.20143369046579
  C   5.05967761470555     -1.34351242571773      0.01924089744313
  C   5.86324706203670     -0.18167814810406     -0.03505860153489
  N   5.40811900404792      1.02027782334922     -0.18801449376854
  O   4.03956918235348      1.17954318438870     -0.38040942930271
  C   7.36498005745743     -0.23865904532496      0.10089977629039
  O   7.96482334844060     -1.27059730226155      0.29662498935390
  N   7.98649599094046      0.98307518944211     -0.02759401852997
  C   9.35817145187451      1.21299201022741      0.02461788137610
  N   10.29111318977634      0.37457301169732      0.19914707904761
  C   9.67775489753862      2.61930186249119     -0.15618785136413
  C   9.89983674962079      3.78558030163944     -0.30734863837763
  H   2.04587780663938     -2.66964109944894      0.24782221211908
  H   6.18060556771110     -3.25080248130367      0.27040744931472
  H   7.35919988779524      1.76413204404677     -0.17889437092246
  H   9.89708852151253     -0.55930842519747      0.30896147255676
  H   10.10886896650189      4.81948774260404     -0.44087406632811
