20
Coordinates from ORCA-job 7888optt
  Br  -2.89115488431094     -1.59298625995571     -1.07549348103296
  C   -1.01579760703045     -1.70042097635276     -0.91332123717780
  C   -0.33692550069648     -2.89408464682555     -1.07747401954501
  C   -0.74358045829906     -4.23494945169357     -1.35915679723389
  N   0.29927413158583     -5.05489976020586     -1.43070852228073
  C   1.40843594310154     -4.29270234773054     -1.20294452840785
  C   1.08803777504672     -2.95577427832262     -0.97793922430924
  C   1.90209351802689     -1.79769175063642     -0.70552202134146
  O   3.13149972751083     -1.77363942668695     -0.61370543175781
  C   1.09754261462216     -0.58137740297760     -0.53751824407635
  C   -0.27346609456623     -0.53358028532206     -0.64943846272863
  O   -0.92372599128635      0.67722361867812     -0.51280559092001
  C   -0.78357320819991      1.17272502506258      0.78878671928632
  O   -1.67614037331884      1.08470416834600      1.57008411840893
  N   0.39417047914740      1.86073636839786      1.00552940735279
  C   1.48193248716947      1.59122538083447      0.40218376327678
  O   1.84847028406979      0.56466336908747     -0.33268163482862
  H   -1.75794987818187     -4.58223270370940     -1.49932682883978
  H   2.39609970319536     -4.72957406281555     -1.20861353142240
  H   2.31375733241414      2.28363542282811      0.49506554757773
