23
Coordinates from ORCA-job 7891optt
  Br  1.30323937630998     -0.10408239804989     -1.35535222298620
  C   3.22507059256158     -0.13304326042881     -0.67788285865051
  C   3.76745670682864      1.09845362679616     -0.27548219787484
  C   5.14950643113005      1.18777402436680      0.04275738670480
  N   5.44291996578338      2.48953409851788      0.41102480942279
  C   4.31320105484682      3.23696884446387      0.33897021412748
  C   3.26698964060525      2.45182604063059     -0.06518179871811
  C   1.89864831166234      3.03751014445424     -0.11855474818371
  O   1.43707984924807      3.12613861753906     -1.48448459594789
  C   0.20731299039435      3.61680253224526     -1.68596954871523
  N   -0.31989346095335      3.76626124154241     -2.82019712921130
  C   0.93074250781938      2.36832719383925      0.76428469533465
  C   0.15614456295656      1.90111761881676      1.54958233381656
  N   6.16013121724707      0.26845921563857      0.04095835949995
  C   6.34474883671438     -0.90112015497069     -0.17449451091369
  O   6.71943330408084     -1.99738643006869     -0.34296485467515
  O   3.78251976717274     -1.22587549571164     -0.73564129064856
  H   6.35942278886272      2.80789933744424      0.66391706896221
  H   4.31012583251924      4.28294884051434      0.60060483064894
  H   1.98838538504167      4.06646224893999      0.24969396888421
  H   -0.33859977443679      3.89519465653767     -0.78421930732868
  H   0.31901576927135      3.42684458482926     -3.54101681774824
  H   -0.51760165566633      1.42098487211331      2.21664821420053
