23
Coordinates from ORCA-job 7896optt
  Br  6.17018033594765     -2.32243127338197     -2.33387882467383
  C   5.65133890595535     -1.13618419039641     -0.91648206133090
  C   4.67480269411636     -1.61658168727478     -0.06030030844065
  C   3.90629133628938     -2.77438075299421      0.11106813980267
  N   3.09914933784026     -2.65154594552819      1.18111490398488
  C   3.30653332010647     -1.43460646431428      1.72960418970725
  C   4.27505432193132     -0.72933423351412      1.01202437734847
  N   4.78282831941244      0.50193506252447      1.17775631772458
  C   5.71240423068527      0.92730255437175      0.35400646987171
  C   6.23227989488531      0.11992829559389     -0.75128338889327
  C   7.28380669052825      0.54165820912898     -1.63306781960333
  C   8.08871292682416      1.64093776644852     -1.58808793259141
  C   8.05698216850064      2.72961421083874     -0.69379057329935
  N   7.16619605384963      3.03128414920065      0.23745433349962
  C   6.13639719890745      2.31741559585448      0.64539618815426
  C   5.30094028513573      3.02800129024171      1.57478138335987
  C   4.62781036108528      3.69932401702490      2.31090183897511
  H   3.91785730108717     -3.66971789285766     -0.49315249070672
  H   2.76532625524780     -1.10382233494107      2.60357109993508
  H   7.50191500646813     -0.15284137649983     -2.43195733609168
  H   8.86471872365742      1.69525771894567     -2.34463039458611
  H   8.84034504329350      3.47310350698333     -0.81305851512275
  H   4.02612928824486      4.27168377454542      2.97301040297650
