23
Coordinates from ORCA-job 7904optt
  Br  1.07432150555083     -0.01228623297685     -0.08477075917662
  C   2.98075328958483     -0.03490351737385     -0.06832761015082
  C   3.63727107482897     -1.25996512523495      0.02557321721612
  C   3.31753346652287     -2.62704017985078      0.13347365459580
  N   4.42630540471021     -3.36801874648128      0.19689355367335
  C   5.50079818416308     -2.53204482308281      0.13390932679825
  C   5.07215998206152     -1.21860768616271      0.02876615638565
  N   5.72705704754728     -0.02041736271587     -0.05971827365682
  C   5.07653078492129      1.15924787186809     -0.14652958289332
  C   3.65502483247922      1.15363459209225     -0.15041876482098
  C   5.81300197871457      2.39270006328941     -0.23753247816646
  N   5.05806634968382      3.53147597452543     -0.29949151604201
  S   5.71685867543430      5.00056004353546     -0.43050730652228
  N   7.35542488129910      4.88347914286191     -0.45092455368152
  C   7.91406076502135      3.73678292609580     -0.37079297752417
  C   7.24985649912202      2.41518354014536     -0.25887218413422
  N   7.99086606722028      1.34570166879602     -0.18555385627638
  H   2.33118816684075     -3.06577267241582      0.16766345510739
  H   6.51290355690799     -2.90529784205777      0.16893034103736
  H   6.75252682640274      0.04560294621321     -0.06765655622538
  H   3.14693909279965      2.10072991791762     -0.22334200731552
  H   9.00500134732594      3.71152979472537     -0.38849427868598
  H   8.97755022085733      1.58872570628675     -0.22027699954143
