21
Coordinates from ORCA-job 7913optt
  Br  0.85284660342671      0.02182913209526     -0.26903056060241
  C   2.81979921449195      0.14037411820059      0.45067938029759
  C   3.54773019495479     -1.06012373500465      0.49467305570016
  C   3.30542411918369     -2.36515158225589      0.92520939961462
  N   4.39412127025851     -3.14471510867489      0.75888709284745
  C   5.36160010953031     -2.38105288305305      0.21070072084893
  C   4.90575328364519     -1.07910108487884      0.01649336316625
  N   5.51030597064823      0.00073328367371     -0.55034312529351
  C   4.81917727769197      1.08337407117058     -0.58942753702838
  C   5.43387452351493      2.24300217975708     -1.18060303447211
  N   5.94308309110494      3.15156325866465     -1.66648913084974
  N   3.51433086395343      1.22422985174685     -0.07465977881194
  C   2.87762131957637      2.47254560078352     -0.04944586932904
  C   2.63602210380872      3.31945687107704     -1.07143487311213
  O   1.95928128582939      4.38493622585215     -0.56886186556230
  C   1.81160887554420      4.10227534448824      0.73860380209164
  N   2.33454195419471      2.99288220242153      1.11110763988031
  H   2.38587010066874     -2.76007871721277      1.33197279116037
  H   6.33670205463576     -2.77867116802104     -0.03172898808564
  H   2.87473722095425      3.32128239487285     -2.11822636373968
  H   1.27756856238313      4.82140974429704      1.33692388127955
