30
Coordinates from ORCA-job 7914optt
  Br  1.06273236466377     -0.65359423585609     -0.51564055925378
  C   2.94944906687566     -0.43703902098360     -0.28233017750818
  C   3.44130833419964      0.58610053451805      0.56237549373422
  C   2.92550646614984      1.62247036992061      1.35221107146280
  N   3.90600981634349      2.34618856687170      1.91309710885656
  C   5.08741361384040      1.79549909900320      1.50314927884359
  C   4.85762891236901      0.70779272317952      0.67319197209186
  N   5.68000468593796     -0.21244824070742     -0.00842637189219
  C   5.04116055043633     -1.08761978647698     -0.88587966713801
  N   3.74212741212697     -1.21192519455346     -1.00059003499939
  C   7.11021790602237     -0.06523055914368      0.00109781810582
  C   7.64648533030327      1.23657480437326     -0.65141586210407
  C   9.07237953413377      1.36867945448629     -0.05942053593175
  C   9.20150967482463      0.08673248829016      0.77281032499031
  C   7.80518796991008     -0.03949836351228      1.38055870788922
  N   9.27783206869236     -1.03960964964157     -0.18354364624158
  C   7.88156309100314     -1.23107159645766     -0.65150987129155
  H   1.88212666942684      1.85292422038277      1.51621671263115
  H   6.02417484995827      2.22698540743716      1.82276449628680
  H   5.67291200059080     -1.72453095263877     -1.48400734626444
  H   7.00501194142567      2.07260293692788     -0.37836265228522
  H   7.64242980606167      1.14539556971061     -1.73818892251063
  H   9.15101086791374      2.24894968872371      0.58110637331942
  H   9.85175218643946      1.41852026314315     -0.81845850393084
  H   10.05089865414270      0.07511414084210      1.45374770044123
  H   7.50959879882990      0.80612331714400      1.99530539789574
  H   7.64789039925598     -0.96946420451358      1.92975665180859
  H   9.57634395943640     -1.87062054348502      0.31052795897294
  H   7.47408007470158     -2.18822615557774     -0.31719710473268
  H   7.82925299398418     -1.19177508140636     -1.74094581124594
