26
Coordinates from ORCA-job 7919optt
  Br  1.29231294406030      0.37932940702216      0.74931747548829
  C   3.01417814861969      0.06929944584201     -0.17131524441619
  C   3.65104417484715     -1.15486738322591      0.08273521915306
  C   3.23758441192271     -2.50334348992302      0.23159612466870
  N   4.27165813047793     -3.30754048887125      0.45419343780689
  C   5.39875825711556     -2.51829230432023      0.47224093551777
  C   5.05423849718300     -1.20665126385826      0.25160103614691
  N   5.79624706825317     -0.01737769546885      0.21012025253976
  C   5.24752039168585      1.18181688074889     -0.11398196962754
  N   5.91703137471099      2.25381015984113     -0.39195770012755
  N   3.84765295681221      1.22170072399687     -0.18671006159805
  C   3.25654037860979      2.45913513491041     -0.57219109511653
  O   2.40022838765096      2.51549800189546     -1.40698757593362
  C   3.64839158448819      3.69857023999925      0.22955228305466
  N   4.34014122733766      4.68162146317279     -0.56427291863409
  C   3.69613380479208      5.66804135128301     -1.24667022748998
  N   4.15839522204255      6.44975112938633     -2.14076352511196
  H   2.22338946000007     -2.87390370954345      0.18486074002664
  H   6.37863453638865     -2.93828010354731      0.65026678544252
  H   6.79709746241499     -0.07265939598941      0.12703935656440
  H   6.91163254503081      2.08069752991600     -0.29283134073502
  H   4.24883350077113      3.42529625976063      1.09278382853426
  H   2.70269573457926      4.12419172426660      0.57125372795809
  H   5.23459228747960      4.34530758025482     -0.90028327649851
  H   2.66057709815896      5.79988796163335     -0.93092234537149
  H   5.12749041456664      6.21596084081792     -2.35967392224141
