22
Coordinates from ORCA-job 7921optt
  Br  0.93764119222019     -0.65137302510238     -1.16391479957566
  C   2.72763241625964     -0.33569061843142     -0.59982012458839
  C   3.46180117258339     -1.32482675174150     -0.07895946306987
  C   3.24252813728677     -2.72160083199712      0.19360166054486
  N   4.31340536734943     -3.25746858422816      0.71475492731031
  C   5.29190298226358     -2.28013964316044      0.82256589880945
  C   4.84612570156320     -1.06549909955949      0.35606709617545
  N   5.47678421367805      0.11964018478547      0.28748558404810
  C   4.93405226621382      1.21271967235174     -0.19047525857938
  S   3.23872869123822      1.28903272026847     -0.83026563843210
  C   5.68960669490612      2.42198500322594     -0.22352853898852
  C   7.02429096855377      2.43621201188270      0.26559080785881
  C   7.75913792748968      3.62246900775893      0.23275684438584
  C   7.20015729835563      4.75485924602504     -0.26838491213704
  O   5.91896529949108      4.76248834703794     -0.74937232601301
  C   5.12546636326646      3.63767667037271     -0.74626459684462
  O   4.00442210695818      3.78239504366780     -1.19567924355594
  H   2.33703119876954     -3.27970336845306      0.00396988487076
  H   6.26339394414453     -2.50851549184934      1.23063849457393
  H   7.43954657129086      1.52052755082969      0.65623405386491
  H   8.77567124322014      3.66326045865155      0.60019983352764
  H   7.66970824289766      5.72255149766489     -0.34620018418553
