22
Coordinates from ORCA-job 7923opt
  Br  1.49450025234750      0.07231237475865     -2.28670274577441
  C   2.62376546075062     -0.09513213183662     -0.25709364953852
  C   3.39023450851194     -1.24390244825637     -0.06411895492087
  C   3.25187806034305     -2.61886163094474     -0.22530526437123
  N   4.37154593406787     -3.26444257871489      0.16520457400108
  C   5.26278419542667     -2.34307022664658      0.57593786944706
  C   4.72016784853065     -1.06409226396642      0.45960268341976
  N   5.25964387203549      0.15577920186033      0.69413878406527
  N   4.56865143384729      1.18935347947940      0.50744018798646
  N   3.23805364726486      1.04354182829138      0.09311960680484
  C   2.57259694895069      2.32918284241258     -0.03729408535941
  C   2.44518598039409      3.06679509091638      1.26418524651552
  N   1.32419162529282      3.52888338221291      1.68903188322382
  S   1.57562393806488      4.37987441481023      3.11665076399948
  C   3.32885448018505      4.08994376292569      3.14710151679171
  O   4.13359308822973      4.46313616586567      3.96052456567556
  N   3.56104205301573      3.34262164354448      2.01375039320156
  H   2.39678150518350     -3.15143042373406     -0.61375641954221
  H   6.24564233218806     -2.61723800499297      0.92984636242125
  H   1.58120157540484      2.15680117681417     -0.44339412726108
  H   3.14170600869394      2.94629125701068     -0.73806919117711
  H   4.46035525127039      2.93065308819009      1.78220000039144
