21
Coordinates from ORCA-job 7928optt
  Br  1.02277768070988      0.18227448648502     -0.02801181996787
  C   2.91171003561722      0.09978109041716     -0.04452857357083
  C   3.59817253584623     -1.13758848812394     -0.04981013436620
  C   3.27906291543739     -2.51209966826115     -0.05096837788705
  N   4.37259113824804     -3.27364915073763     -0.05594603060917
  C   5.45464201028397     -2.42422109890487     -0.05810506452674
  C   5.01026238452104     -1.10803799555974     -0.05490719019764
  O   5.75275000203354      0.03842544957070     -0.05612118315889
  C   5.04593422432233      1.20514822064860     -0.05304804660531
  C   3.68124016780333      1.26783579500115     -0.04684838666248
  C   6.79529168113005     -2.94048076682911     -0.06098116848515
  N   7.88348418742642     -2.21481319913589     -0.05894917737542
  O   8.93016728381187     -3.10125056356917     -0.06176255559431
  N   8.51045947663049     -4.36364244758057     -0.06558456810465
  C   7.21230968785329     -4.32429266005546     -0.06531114126210
  C   6.39945811913540     -5.57132878358604     -0.06978044131857
  O   6.89175469229546     -6.67111007504278     -0.07133771222159
  H   2.28864717431109     -2.94458191213841     -0.04838790784505
  H   5.68918251684668      2.07059928164917     -0.05556982133752
  H   3.21588503825218      2.24366951728489     -0.04368887396690
  H   5.31621704748407     -5.39763703153192     -0.07135182493657
