25
Coordinates from ORCA-job 7929optt
  Br  0.86131862026283     -0.25329106099389     -0.25382280716887
  C   2.75558588148407     -0.22700754095047     -0.08112903664512
  C   3.44524433898292     -1.44684134812703      0.03390737449584
  C   3.14226486499183     -2.82068860090925      0.08795892983855
  N   4.24884887999724     -3.56052370544957      0.22384853946769
  C   5.31216374026686     -2.69672260232104      0.26323263899510
  C   4.86303486466781     -1.40403316078826      0.15069985035504
  O   5.58196717223457     -0.23096605390350      0.13004648271792
  C   4.87194139292370      0.92897890520173      0.02879613585155
  C   5.77580178823292      2.11529425993528      0.01929570141480
  C   6.13542855859629      2.66838170059627      1.41665556267230
  C   6.97918753636781      1.78279719715096      2.21905763701006
  N   7.66750265170954      1.13487331317643      2.86770930881745
  C   3.49161561881504      0.96663988956742     -0.07370742300238
  C   2.81418819446056      2.31610856439480     -0.16177025751910
  C   2.94037715046118      2.95989140116787     -1.47326097552935
  N   3.05705401304061      3.49977075579184     -2.47851572778563
  H   2.15977194234634     -3.26856069824422      0.03121698228709
  H   6.32749841373324     -3.04575999757094      0.37345058484712
  H   5.33287125142059      2.93724490734688     -0.54441866554327
  H   6.69895707554554      1.83939371133314     -0.49494791566262
  H   5.22423913485648      2.86456197176988      1.98408637837868
  H   6.67269303016647      3.61475655862732      1.31611037855117
  H   3.22173168280404      3.01363927177741      0.57332474132107
  H   1.75171220163139      2.21106236142093      0.05317558183492
