25
Coordinates from ORCA-job 7931optt
  Br  0.94882497612577      0.35594174880430     -0.26646544172435
  C   2.83082861167103      0.25152031748157     -0.04338257360614
  C   3.46136970086666     -0.99548037862383     -0.05394525668320
  C   3.10805563323521     -2.35481446247190     -0.16521314480590
  N   4.18760950729478     -3.13468688542699     -0.12367075307781
  C   5.28617077549347     -2.32164349814558      0.01303553700842
  C   4.88559265605278     -1.01047568894254      0.05960601386527
  O   5.63185452503192      0.12203741109940      0.17553304570027
  C   4.99464069472181      1.31429652339314      0.21765956761044
  C   5.84186675510074      2.45816442200048      0.36353177145397
  O   7.06927723732395      2.42586760264815      0.43026674161687
  C   3.58255255969859      1.40280855779260      0.10291477450063
  N   3.00247388848555      2.69391990753210      0.09340568834405
  C   2.74502739721034      3.42301469861080     -1.14908110583090
  C   1.83560113925652      4.56150379836375     -0.63689147337758
  N   1.39176581606862      4.16191919944413      0.70974419170451
  C   2.08730344314350      3.14068194769305      1.01411631985094
  H   2.11182183842342     -2.76046707152683     -0.27036797076487
  H   6.28713891780727     -2.71915295663726      0.06957832253209
  H   5.29744283628748      3.41363840905411      0.41590469781370
  H   2.23528878287087      2.76913254375567     -1.86429539196497
  H   3.67739941409891      3.77308478344947     -1.59345110831675
  H   0.97593030318439      4.73155194346494     -1.28510118216817
  H   2.38431541478987      5.50437506117083     -0.56117724586315
  H   2.01484717575652      2.61626206601643      1.96074597618264
