23
Coordinates from ORCA-job 7933optt
  Br  1.13599574226725      0.21285626839421      0.67588096450906
  C   2.84446168531267     -0.02728908488937     -0.17801157163345
  C   3.54253151954090     -1.23747046123782     -0.07623628826725
  C   3.24166599763211     -2.62351939169626     -0.04362510814182
  N   4.34469611354177     -3.35709144746926     -0.04303572988250
  C   5.42284135742209     -2.49441469901025     -0.07856534402919
  C   4.94321407850485     -1.19581913904835     -0.09496811438643
  O   5.63561121322637      0.00133496784716     -0.10346006193494
  C   4.94563910619693      1.15795309337133     -0.01474903417624
  N   5.51424362778775      2.27749696925195      0.10232808231064
  O   3.59909903240015      1.13304593325073     -0.09180210572240
  C   6.78246750255272     -2.99893012825304     -0.08222165695495
  C   7.90560776542123     -2.16009240897353     -0.15609233496059
  N   9.16305391227596     -2.58907537428572     -0.16168223222134
  C   9.37639026334126     -3.90155261431457     -0.09446556842821
  C   8.34270213063526     -4.82595571823784     -0.02091165166855
  C   7.03625966410166     -4.37260018205845     -0.01360640856561
  H   2.25754064451343     -3.06921196779655     -0.01335736530711
  H   6.51852353656725      2.13039022608359      0.13455137643813
  H   7.76661948310285     -1.08712089125964     -0.21518670091433
  H   10.41245099353569     -4.22452304507805     -0.10096461049958
  H   8.56447634813010     -5.88500439236401      0.03005354181998
  H   6.19290828198957     -5.04840651222622      0.04112792261667
