19
Coordinates from ORCA-job 7935optt
  Br  1.08013857712783      0.01799037213433      0.06543204234364
  C   2.98755686615827      0.04326353794841      0.06497469077606
  C   3.62729003543508     -1.20355254314419      0.06507107069405
  C   3.14740890977183     -2.53465274124755      0.06519698958038
  N   4.14013637850504     -3.42422554525657      0.06529907630843
  C   5.30602738004609     -2.70546371472123      0.06520782648390
  C   5.05038744220973     -1.35181076727390      0.06489822725111
  S   6.16329146101273     -0.01511823259408      0.06467359166120
  C   5.08760536428111      1.36273664020199      0.06426699595780
  C   3.66254176462042      1.28700605682071      0.06448979334224
  C   2.99624830144100      2.54289969497218      0.06412449873459
  N   3.57612780586590      3.72871090846064      0.06364965825305
  C   4.91325013264910      3.76316689266543      0.06348827029953
  C   5.68753594622036      2.61647756524335      0.06378227799505
  H   2.10996722738711     -2.83736590028384      0.06523330807083
  H   6.26802957225765     -3.19788726468573      0.06528432106025
  H   1.91360198624183      2.54417757465385      0.06423698284226
  H   5.37804448499078      4.74277928118757      0.06307200480844
  H   6.76881036377811      2.69186818491861      0.06361837353719
