17
Coordinates from ORCA-job 7939optt
  Br  1.08493052708269     -0.12592199620984     -0.04081799247262
  C   2.97939555657720     -0.05624004987522     -0.03464010838978
  C   3.68966870204569     -1.26444259189468      0.06621347059205
  C   3.28034254650470     -2.60953767193337      0.18512512643352
  N   4.31859958349820     -3.44241301090246      0.26868469826590
  C   5.44347518652031     -2.66825868955280      0.20634358016545
  C   5.12043219767146     -1.33378239223213      0.08267061472671
  S   6.17045199298016      0.04840038840549     -0.04191443814553
  C   5.02221560984628      1.32477066929681     -0.12694670570580
  C   3.62799293634193      1.18235595961787     -0.12096529006907
  C   2.89197345506148      2.39067170281066     -0.21331878642437
  C   2.31587004181897      3.45001745284273     -0.29855394041660
  C   1.66377691541465      4.65369259074570     -0.38441788412463
  N   1.12358136606220      5.67016371287430     -0.45577602369765
  H   2.25979198243113     -2.96453356141319      0.21334669537913
  H   6.42962885030145     -3.10745808074955      0.25441994177852
  H   5.45587254984144      2.31051556816968     -0.20145295789524
