21
Coordinates from ORCA-job 7947optt
  Br  1.27767165446322      0.07614671488343     -1.42322284469785
  C   2.96107218650764      0.03496257509898     -0.51835987867135
  C   3.59797492457173     -1.14031101422009     -0.15208664437853
  C   5.04873191243883     -1.09399619401794      0.06489148618881
  N   5.76378058527942     -2.22905664871630     -0.01797854266679
  C   5.15433927828741     -3.39137692303865     -0.16698316823139
  C   3.77104341483257     -3.57331878429603     -0.11561420158946
  C   2.96344082731999     -2.42111808346600     -0.01545977887619
  C   1.57367877864954     -2.51380028877155      0.34798393476005
  C   0.87823328501076     -3.65689100567273      0.42121737106196
  S   1.51314890741979     -5.21861359903505      0.01699843097718
  C   3.26343562594581     -4.94645975041012     -0.16405871455430
  N   4.02238278208904     -5.95261517292643     -0.36111846113720
  N   5.75644058686322      0.00645110883077      0.34040743189235
  C   5.31021610585284      1.24899470391970      0.33386490009915
  O   5.87371009865570      2.26090279639316      0.68859723845044
  S   3.63823140737018      1.60818255103606     -0.39885951266874
  H   5.78565229805927     -4.26237508667644     -0.29283828011238
  H   1.07070236477955     -1.60747388980382      0.65218476168666
  H   -0.14794225870458     -3.67961668433972      0.76142301516145
  H   3.50505523430803     -6.82861732477116     -0.35998854269387
