24
Coordinates from ORCA-job 7949optt
  Br  1.34906582374200      0.12465260650496     -1.22058032145746
  C   2.94715094857536     -0.11758347368437     -0.20414660711072
  C   3.60778073410555     -1.36017188971223     -0.12911486408056
  C   5.03911970083674     -1.30921712937496      0.04635126654352
  N   5.71827984438447     -2.49618600019969      0.24489299575465
  C   5.19066228613599     -3.69888700036027     -0.38618329121492
  C   3.72832952248834     -3.81213472704008     -0.09638808189113
  C   2.99509876461301     -2.62794907973365     -0.05010802431146
  O   1.65314187284190     -2.67173065043861      0.10861002143097
  C   0.91748107663988     -3.85880241299999      0.19227677238203
  O   -0.28279698892849     -3.73572592423146      0.28578561413680
  C   1.67832046073478     -5.06325065951603      0.17123553074413
  C   3.05024163068399     -5.01459195597344      0.03184210890956
  C   5.69109035589984     -0.11260478579818      0.09201450623336
  C   4.98567951087814      1.13562003800071      0.00440628835490
  N   5.46096365852125      2.32043182414378      0.06129983658602
  O   3.63033297702668      1.06636791466357     -0.16028398746698
  H   6.71982095340545     -2.39367516031476      0.18613286503226
  H   5.72264833298150     -4.56457950945699      0.01221787774563
  H   5.36554084639262     -3.66731797659501     -1.47472557843473
  H   1.13043525890168     -5.98765993734278      0.26477191683863
  H   3.61836900891193     -5.94067442185816      0.00687787335633
  H   6.76493540266168     -0.07178454009492      0.21956986971249
  H   6.46630801756560      2.25945485141262      0.19224541220667
