34
Coordinates from ORCA-job 7955optt
  Br  3.01696445087403     -0.64778098500560     -2.46557836606946
  C   3.03189236843715     -0.12670256258762     -0.63106496815995
  C   2.84093353668247      1.23352244506556     -0.26713227837414
  C   2.43172609402336      2.23913319049217     -1.30569771393180
  N   1.07288018239435      2.05583936840548     -1.85543759440783
  C   -0.00283602574538      2.91374230349518     -1.41116103609621
  C   -0.29766694573411      3.10853340968429      0.09247351857019
  C   -0.25862418571544      1.83079584604741      0.95386300285962
  C   0.28546090801727      2.28085290311744      2.31651104607029
  C   1.29727976840012      3.39076020407752      1.99014079220878
  C   0.62776363390411      4.12260265804851      0.81433714302190
  C   2.74168750733188      2.89362058797773      1.72347966319765
  C   2.94262530886637      1.52703950342313      1.11189384090480
  C   3.22849982890263      0.51738801462356      1.98645182229948
  O   3.41247424634145     -0.79562746743636      1.61857365902489
  C   3.34985781623703     -1.16581631649119      0.27652210998827
  N   3.58388500552023     -2.40113094904052     -0.00314791526940
  H   3.12775664592399      2.18071078683236     -2.14819381773599
  H   2.50838786225078      3.24807089839186     -0.90330454306237
  H   0.82295348717050      1.07706567296536     -1.80706316795361
  H   -0.91014900285530      2.52702411234994     -1.88511072844719
  H   0.15360346222315      3.91387795221478     -1.83661696778649
  H   -1.31293825794177      3.51741395963493      0.12699500418799
  H   0.42027933302803      1.09770189279082      0.51700360048722
  H   -1.24176092715540      1.36332431306693      1.03725684374237
  H   0.73231071792041      1.45910969498272      2.87726534785174
  H   -0.52583729466928      2.70702049024873      2.91616428541835
  H   1.37328234528539      4.08185699678291      2.83454641674466
  H   0.02112415507849      4.94230669209354      1.20845391259160
  H   1.35590084452781      4.57908085713921      0.14188900273667
  H   3.25306332157499      2.87271667843082      2.69014010564668
  H   3.25884541431984      3.65680746495405      1.13293330754605
  H   3.36113845145132      0.65485078667291      3.04990872343102
  H   3.78023594312951     -2.88971140344861      0.86670594876423
