26
Coordinates from ORCA-job 7957optt
  Br  3.23356017097872      0.86357074779318     -3.77791511579374
  C   3.56353592931172      0.75083962759562     -1.86996650766175
  C   3.54268727115889      1.80264618529905     -1.03227581917731
  C   3.45965095584179      3.25737470061076     -1.45905828162156
  N   2.54914745760136      4.17219891467391     -0.76735483428446
  C   1.09920217034648      3.95996351614445     -0.90177482756188
  C   0.58966908950493      3.10573034609114      0.22810915983710
  C   0.75306961386987      1.76321806460894      0.27336481909010
  C   0.99272190205554      1.25258050588133      1.58658173250149
  C   1.87359818045045      0.02799991056631      1.72727042191755
  C   2.88131553878678      0.14971137138243      0.59159227537609
  N   2.79977082917149     -0.80041273483070     -0.29856883778300
  O   3.67110701938384     -0.51324067437759     -1.44136998318936
  C   3.53188668337723      1.43615577090804      0.38661788260861
  O   3.75362145538194      2.26340890363292      1.31235524883617
  C   0.79885918359374      2.20702104954010      2.53307926215887
  S   0.45770718164645      3.74305131513710      1.83437258288187
  H   3.23794814903549      3.29842072537020     -2.52608448831675
  H   4.45684011616167      3.68758470992513     -1.32926107605545
  H   2.79603320691807      4.15929044634385      0.21876326758946
  H   0.90135858468904      3.46064771581080     -1.85369717874088
  H   0.60177811835716      4.93312036466438     -0.92573085709628
  H   0.92599290602313      1.17707542257154     -0.61970991871070
  H   2.37335789773289      0.05338492240814      2.69612136157972
  H   1.34547391362593     -0.91967862447136      1.61882405376633
  H   0.97110647499535      2.12433679672030      3.59471565784977
