28
Coordinates from ORCA-job 7961optt
  Br  2.25554656984613     -0.45642435934285      2.95787227485620
  C   2.92168708168828     -0.02691582063690      1.22457750211454
  C   3.37023979994148      1.26246669301934      0.92091686964032
  C   3.03903170545720      2.44200782481534      1.82228917570183
  N   1.60920640102306      2.74991614279472      1.99584977383789
  C   0.84818072532651      3.32841058113602      0.88312227706718
  C   0.69031605902728      2.45777600777614     -0.32619822978155
  C   -0.05951679471621      1.36280985168647     -0.61136654618378
  C   0.61871891353758      0.66679455994821     -1.66825338137751
  C   1.73413602431881      1.40002818572345     -1.94978115987256
  N   2.99913679082875      1.13115887051010     -2.50040482649155
  C   3.82704310528082      0.58594165820368     -1.37543694440086
  N   3.47571103100154     -0.71723780464987     -0.96111593434378
  C   3.02043723099565     -1.11282406493832      0.29840734509885
  N   2.71752343106144     -2.34414523647861      0.57994793286351
  C   3.93775815469015      1.52252846767581     -0.31763726918693
  O   1.71750851520415      2.53327523179066     -1.20725678125312
  H   3.52641389420916      3.33472186405837      1.42314712697473
  H   3.43168180479728      2.27264659952828      2.82784305264970
  H   1.13838352858538      1.91535317754707      2.32838942128441
  H   1.33918606923290      4.25811498135907      0.58315473976691
  H   -0.13651730817130      3.58796607898540      1.27686611628650
  H   -0.92225304566890      1.02441694671472     -0.06023018812639
  H   0.38853447787300     -0.30882244248727     -2.06195959512746
  H   2.94138022653537      0.47578879533592     -3.26795748167120
  H   3.61665014784327     -1.47461235364672     -1.60997853197670
  H   2.84008119699772     -2.92852591586671     -0.24499513955099
  H   4.11879426325348      2.55138547943843     -0.59581159879817
