23
Coordinates from ORCA-job 7964optt
  Br  1.71601923049511      0.40559616935737     -0.78311494571166
  C   3.50601898660876     -0.11251784731442     -0.47877964710653
  C   3.88413314712419     -1.39359032687112     -0.16683409502919
  C   2.97773151921927     -2.46228788494436      0.07144364811665
  N   3.33901228298584     -3.69239864456514      0.42671172907487
  C   4.63622791465435     -3.96447860153503      0.47964023815693
  C   5.65953853733012     -3.04495850251637      0.19318382071468
  C   7.04750213118971     -3.35058727326054      0.17047877808179
  C   7.83884319365348     -2.61699015249865     -0.70611752723355
  C   8.49148086851102     -1.57979256521765      0.09095538228078
  O   9.54988465883014     -1.46077437676959      0.62622688114629
  O   7.53302201514738     -0.57009118020620      0.35091580093561
  C   6.19638291229475     -0.57211238453513      0.01542169235147
  C   5.76359995661736      0.77857028950420     -0.29758826321324
  N   6.47089394235258      1.85009649288146     -0.35530789149688
  N   4.40951263107396      0.90267529048413     -0.58144413319976
  C   5.31729832185980     -1.64989703515345     -0.01262509766351
  H   1.91465132464731     -2.26928401380998     -0.00217151987932
  H   4.91234155983667     -4.98580022987453      0.72725808344675
  H   7.49556275484394     -3.95706488942816      0.95639622284354
  H   7.25334827196901     -2.15578166559416     -1.49792519569426
  H   7.43219209819789      1.62184350438206     -0.12389542559407
  H   4.10580174055728      1.83862582748531     -0.79982853532737
