32
Coordinates from ORCA-job 7967optt
  Br  3.23631217743621     -0.71599843623879     -2.95719668789559
  C   3.18527720062519     -0.04821436282655     -1.16613210090929
  C   3.37915994235782      1.33019115847284     -0.98842365172150
  C   2.83133227682982      2.40608800335244     -1.86673734026332
  N   1.36260659924032      2.52382166960382     -2.00543648170666
  C   0.58917759464896      3.39311873518342     -1.14402692637172
  C   0.24456757890021      2.97838855545107      0.30639038879709
  C   0.02953819744261      1.48334534703557      0.53969847203943
  C   0.21260504748487      1.36340240285848      2.05144961183713
  N   1.29963088427004      2.29165936141478      2.39856059622467
  C   1.26674776418142      3.37848447215843      1.39886950813269
  C   2.59703858139305      1.62770929989526      2.55203092259462
  C   3.01725717163727      0.88147878386290      1.31082495664941
  O   3.47085010949438      1.73464199900807      0.37077347772383
  N   2.84144257888309     -0.36333506815637      1.17522958803550
  C   3.11316925772326     -0.97202175864148     -0.10653960217826
  N   3.21314166856316     -2.26800216668307     -0.19003835695064
  H   3.22426536438227      2.24246248799328     -2.87213703489320
  H   3.20482846953192      3.37490496552813     -1.52148439265653
  H   0.95838191102287      1.59755894650816     -2.07743751165454
  H   -0.36296084499738      3.57011128725544     -1.65622443604789
  H   1.09696469219292      4.36399554238648     -1.11646665488449
  H   -0.69555941859949      3.48709066149731      0.54837313106971
  H   0.79476370652244      0.89689851477448      0.02524900259574
  H   -0.94729025669909      1.13666482450047      0.19693199569776
  H   0.46336474275780      0.35215561253477      2.37050768309421
  H   -0.70254791018651      1.67776023030474      2.56615571450607
  H   0.95347293176854      4.31200215615745      1.87662108908191
  H   2.25517670573085      3.53588184444455      0.97036642073045
  H   2.53241836083746      0.92075970512000      3.37793448322087
  H   3.34294208518707      2.38805435065631      2.79165826037693
  H   3.04492482943662     -2.64305912541247      0.74065587572558
