29
Coordinates from ORCA-job 7969optt
  Br  0.72311015078360     -0.18465371887800      1.17619391492133
  C   2.96141115312390      0.09250269265410     -0.02408477530682
  C   3.61874767827200      1.28948909573905     -0.07512997267513
  C   2.85168409732388      2.58906659150174     -0.16650431160533
  N   3.64475294080718      3.77615955174916      0.15411153064342
  C   4.94473499874868      3.71702443892810     -0.48476286753450
  C   5.80318456894469      2.54932252504638      0.01758471839872
  C   6.27852657569383      2.74266426988901      1.46922749129349
  C   7.65909173184829      2.09520694735102      1.46086044362075
  O   8.14363392620991      2.24296331102804      0.12031054512545
  C   7.12395271680761      2.49651593565302     -0.73629934394194
  O   7.31261387674197      2.67515571254504     -1.90088627108194
  C   5.03864596932904      1.23237134452817     -0.10345296344569
  C   5.70580095878594      0.03766459964363     -0.13430383386462
  C   5.00616993332662     -1.22221995866978     -0.10357420312920
  N   5.48267709483972     -2.42260842036722     -0.13299385033957
  N   3.62396376888895     -1.07054690532302     -0.01386654594665
  H   1.97952791083605      2.54001271809324      0.48607282061490
  H   2.47396103577098      2.72354792033894     -1.18603183135628
  H   3.76029708000876      3.84499986735958      1.15991034012925
  H   5.48123357866130      4.65573825960640     -0.32152541023944
  H   4.79958762111295      3.60517964909173     -1.56199559582764
  H   5.61071344217913      2.28150644479715      2.19436595988289
  H   6.36411091753468      3.81054391386558      1.68976690717587
  H   7.60789886376934      1.03220891536864      1.69837297807368
  H   8.37327085545202      2.58079573934635      2.12327461545599
  H   6.78749057182409     -0.00466990463185     -0.18973944473923
  H   6.49542809024446     -2.38471434918442     -0.19516765096126
  H   3.09177789213008     -1.92722718706988      0.07626660665951
