30
Coordinates from ORCA-job 7971optt
  Br  0.26072044587713     -0.08181776248118      0.17890132730792
  C   2.77586661363752     -0.03895526225573     -0.30791594423650
  C   3.59540062438214     -1.12209327715383     -0.25842551341799
  C   3.28273799744925     -2.58286675217788     -0.35632458520139
  N   4.53415478354851     -3.20091806801948      0.13002641722964
  C   5.65585801650709     -2.27547031270288     -0.09312343828240
  C   6.72788455142712     -2.45019894347347      0.99246770217447
  C   7.14079189687565     -3.90143349403844      1.23350988332222
  C   8.04208774502023     -4.38394104624570      0.11055310896588
  O   9.14779614709636     -3.50753849838004     -0.03081062978845
  C   8.71113442918549     -2.20085402857878     -0.29552785417483
  O   7.90011172972618     -1.67809357034272      0.71120414866932
  C   4.97958202435935     -0.92140922910762     -0.08363672316369
  C   5.53397501896923      0.31859626663113      0.05413840219702
  C   4.68138715569382      1.47996758337855      0.02695876027960
  O   5.03409641697851      2.65183143801831      0.14835531842533
  N   3.32333450221008      1.18014676842051     -0.16422588582486
  H   3.05417000143798     -2.87536390660517     -1.39012097469493
  H   2.43587710697550     -2.86770287532572      0.26879254310643
  H   4.70012923382884     -4.09504001326652     -0.31239313743521
  H   6.11028538531854     -2.41605224002607     -1.08507457477649
  H   6.32184860045637     -2.02900510056151      1.91269997063476
  H   6.25483632720544     -4.52807324730561      1.33433732524510
  H   7.70196817340080     -3.94965247873608      2.16888553625396
  H   7.49211742794716     -4.43408909629962     -0.84063740394597
  H   8.45077015829250     -5.37268233694523      0.31634157453321
  H   8.18937934800973     -2.18784945442244     -1.26260814930415
  H   9.59674804591673     -1.57129294048353     -0.33970939990456
  H   6.59136098636112      0.47810858693234      0.20462856491125
  H   2.70658910590536      1.98374329155451     -0.16626636910471
