27
Coordinates from ORCA-job 7973optt
  Br  1.49227542783640     -0.07879649560893      1.03214637121269
  C   3.29291505023261     -0.06347354759543      0.41912142390234
  C   3.96356423341041     -1.25831185853745      0.05787604734003
  C   3.34528558663747     -2.61404706047504      0.16783868485229
  N   4.27240860269930     -3.60404014111254      0.76118679035641
  C   5.67750290218417     -3.41420653048457      0.39877292518345
  C   5.84789446996841     -2.52806621429432     -0.84568602931712
  C   7.28330298424996     -2.65930045418733     -1.40388849428683
  C   8.17552539024618     -1.60160728509924     -0.83957523471818
  O   8.90502911146716     -1.70692178103430      0.10240512608106
  O   8.03497771452472     -0.44210852206897     -1.54202105060064
  C   7.26049008175372      0.52790744405188     -0.84238202619753
  C   5.86852731297921      0.07422814408406     -0.52856993634785
  O   5.21274051357643      1.20817417635028     -0.09616239603819
  C   3.88102203552266      1.20830610671881      0.35398695936583
  O   3.42727305873820      2.30355781919842      0.63298356443085
  C   5.27657946609430     -1.16252831732861     -0.47627302272377
  H   3.01264660363970     -2.96056258946441     -0.82808755436003
  H   2.45493295568563     -2.56559165384890      0.79021203012555
  H   3.97965028596510     -4.52626214120241      0.46497265769517
  H   6.12428660315517     -4.39675439037646      0.22181817344522
  H   6.22752753014919     -2.95023593904515      1.22367945012415
  H   5.19054527729932     -2.95003268366940     -1.61488112055097
  H   7.27001539896934     -2.53326990182325     -2.48554283587946
  H   7.67583757156280     -3.64535532501157     -1.15690733867385
  H   7.22141856496918      1.40907414183340     -1.48377317551765
  H   7.78482526648313      0.80922500003150      0.07975001109702
