29
Coordinates from ORCA-job 7976optt
  Br  -4.56960006058751     -1.85663203402314     -5.09362359799582
  C   -5.54643202808823     -0.84546611971351     -3.75505968519203
  C   -6.45422513112436      0.12871099232794     -4.20635175307500
  C   -6.13371173920440      0.97214505498312     -5.42246928615978
  N   -4.79107785462287      1.59316525604565     -5.41288297879021
  C   -4.40038266959240      2.23760711888017     -4.16049711657946
  C   -2.95151049445912      1.94791400152108     -3.74032926083718
  C   -2.70802609988579      2.37494104970097     -2.28011171085806
  N   -3.10400002712891      1.20521567375169     -1.47695616824566
  C   -3.12111635415525      0.22145045525662     -2.28693272213792
  C   -3.71281853484351     -1.13314908087408     -1.98888494921886
  C   -5.18320231866140     -1.00664769327120     -2.38825905938858
  N   -5.99267504077740     -0.73742219785730     -1.40682585196363
  S   -7.59736608234541     -0.37734142144961     -1.80125585582496
  C   -7.48640530542292      0.55950918325265     -3.33313137453447
  N   -8.30719007991703      1.53778682206936     -3.56868156209349
  N   -2.69899601415274      0.51245560206742     -3.58343256178964
  H   -6.88976040867028      1.75382504728824     -5.48609647599694
  H   -6.18806212505871      0.38054185742994     -6.34004459136463
  H   -4.11629381860378      0.88468476609227     -5.66845022619555
  H   -5.04921944331643      1.91686599966469     -3.33641123606423
  H   -4.51169021145184      3.32458823792879     -4.24908478843543
  H   -2.24369963036161      2.39047346992518     -4.44376393604775
  H   -3.30227951610368      3.24562986018596     -1.99777680840555
  H   -1.65173641461777      2.60573151766798     -2.10313081490438
  H   -3.65651696367977     -1.33005980609860     -0.92157326066486
  H   -3.19821374089086     -1.91159104191113     -2.55281451760051
  H   -8.90162912805944      1.69914172670332     -2.75924331076672
  H   -3.03816276421649     -0.10307429754452     -4.30792453886865
