25
Coordinates from ORCA-job 7987optt
  Br  1.22458638688608     -0.20752613367753     -1.00942015927506
  C   2.93285333893181      0.02280175286655     -0.14773846319191
  C   3.55975851422105      1.30914282189381     -0.03294618762953
  C   2.81871990138173      2.57114419244052      0.15032022482586
  N   1.56091465048530      2.68488370399298      0.45093973067608
  C   3.59880105192507      3.77772319219733     -0.00294221342680
  C   4.95752362994240      3.77245620726680     -0.05053647291470
  C   5.73964447170969      5.02807980933240     -0.13841593709016
  N   5.30425728642005      6.23111981832130     -0.24536542825564
  N   7.10099868974086      4.85701155324429     -0.09556715704076
  N   7.81942060101522      3.70722084988845     -0.02178395761101
  C   7.12115523289047      2.62076010640244      0.02111026317124
  C   5.69837594905882      2.55465481530150      0.00065389001690
  C   4.96455457654386      1.34696080918583     -0.00526771032570
  N   5.66370207224408      0.14322007107589      0.01607511575353
  C   5.04515845285564     -1.08626201905533      0.01952518973469
  C   3.69802162607403     -1.16205837529631     -0.09482374526056
  H   1.12889019183227      1.77598861936244      0.57162383652360
  H   3.03141688434712      4.69890316555772      0.00830502734019
  H   4.29102918338972      6.23373992762959     -0.26416570399722
  H   7.64931028815787      5.69858703801539     -0.15449402202756
  H   7.73606432329571      1.72874676627294      0.07976940303834
  H   6.66470642194828      0.17689097584979      0.02634487152524
  H   5.68853475932766     -1.94851549815467      0.11342527016677
  H   3.21560151537515     -2.12767416991415     -0.15162566472584
