20
Coordinates from ORCA-job 7989optt
  Br  1.77143209752748     -0.18289097556443     -1.77209176637928
  C   3.00166353331281     -0.00432163179140     -0.28793771643776
  C   3.50562943000580      1.26304920271332      0.04271269242144
  C   4.83216408475899      1.44756194743818      0.56618425636697
  N   5.11751493322390      2.74430128203394      0.79897183338990
  C   4.01615035694037      3.41932146661070      0.44024262633112
  C   3.97494753916312      4.88725236313339      0.56011656048209
  C   3.27471532779335      5.74269150629956     -0.40832304648490
  O   2.72871392463755      5.50858128772976      0.87565201911748
  C   3.01904098089295      2.56672270942298     -0.04746771936986
  O   1.80046819120185      2.98192377335264     -0.57228534761029
  C   0.68067769271052      2.62181581398637      0.06554511862510
  O   0.59872844743888      1.99580744236837      1.07558321048125
  N   5.79372163202495      0.48458089542688      0.65066246827212
  N   5.59871448565645     -0.72605928043342      0.47248419276566
  S   3.96334796524059     -1.35134288686548      0.14529473117788
  H   4.82849925431015      5.30356630894148      1.08518212208160
  H   2.74434154119774      5.26776834618997     -1.22642474793917
  H   3.62798670966117      6.75468788751405     -0.58398423612289
  H   -0.17845812769876      3.00198254149302     -0.50211725116847
