25
Coordinates from ORCA-job 7996optt
  Br  1.22725314737783     -0.23204751839439      0.41043807535987
  C   3.14507245353615     -0.07837325028347      0.21358951246466
  C   3.69829715511671      1.15676731134572      0.03274969144326
  C   2.93588305568047      2.45842123334752     -0.07107034662185
  N   3.73788446920134      3.65550409284250      0.14777241425263
  C   4.99041431927031      3.61660205143962     -0.59641011764620
  C   5.86109868650880      2.44062968782415     -0.16828110382303
  C   6.29502432948235      2.44440197208730      1.28209449245471
  O   5.67180626349616      2.80574089048754      2.28175471806901
  C   7.65070931519066      1.77329527767056      1.28604293820993
  O   8.15595555212437      1.93747326127102     -0.04459319222407
  C   7.17910263564368      2.31346376083827     -0.89747299467083
  O   7.39933356752488      2.54568399617765     -2.05028923059208
  C   5.10376468781470      1.14054625965212     -0.19784500019928
  N   5.79124772250731     -0.03435817450178     -0.26906433628804
  C   5.10324873593171     -1.13102324611658     -0.06546476311037
  N   3.79114549937722     -1.24736946888102      0.19863738761902
  H   2.10664098237077      2.46320236723952      0.63533169351272
  H   2.49483872317268      2.52243419535894     -1.07387404924232
  H   3.98212043538793      3.69840091883061      1.13389715290962
  H   5.53049588169403      4.55134060715078     -0.43097989386292
  H   4.77957523160766      3.53169971297106     -1.66647165869166
  H   7.58192271655410      0.70157567541404      1.50163826739311
  H   8.33172961707482      2.25876871649633      1.98461123826100
  H   5.65243481635329     -2.06678033026804     -0.12474089497688
