23
Coordinates from ORCA-job 8006optt
  Br  1.22372500188878     -0.52354610312617      0.48335760130000
  C   3.06782404094355     -0.06444996700366      0.34778122045630
  C   3.60991425094032      1.14180514622866      0.03682020913730
  C   2.87390428495790      2.42307419607879     -0.20286164666677
  N   1.62294890024235      2.57100795930694     -0.49328065387069
  C   3.69759477271501      3.58671490450338     -0.06249558212303
  C   5.06567772029184      3.52820192382211      0.01393924562398
  N   5.79125148125509      4.71406661598436      0.10122216894039
  C   7.14187341207903      4.71377594111962      0.12665337253615
  N   7.88115769180721      3.67341628955385      0.06264858228078
  C   7.27152690910152      2.40039240529293     -0.04517417694520
  N   8.02949537284302      1.36088329517857     -0.14316790470138
  C   5.81483497793534      2.32517779654608     -0.02954494794916
  C   5.06225380896801      1.13312796231500     -0.04054306142692
  C   5.62731974448806     -0.16486584547416     -0.26719575820722
  N   5.05095341385892     -1.29341789748634     -0.05439539705224
  O   3.79459138693446     -1.15991656820087      0.63323851483955
  H   1.15076008980278      1.68211885034031     -0.58787548932632
  H   3.19177066270716      4.54428529245365     -0.10477048632855
  H   5.28615868192740      5.58235651957422      0.14747292057223
  H   7.60201379513713      5.69551301643050      0.21262978402603
  H   8.99417011225578      1.68453272487954     -0.11800141178925
  H   6.61227948691924     -0.24825445831734     -0.70545710332597
