24
Coordinates from ORCA-job 8007optt
  Br  2.62007516343215      0.35825424063322      3.53479094742509
  C   3.48256151248166      0.38635385258132      1.79053781485087
  C   3.50809964787809      1.48286845208858      1.01775330454093
  C   2.99574299189919      2.85092441847704      1.41522432391529
  N   1.52546304311681      3.02327169229366      1.44115912508412
  C   0.86756614463554      3.56721639899051      0.26790516640230
  C   1.00536036683192      2.71298677109271     -0.97578423800467
  N   1.31287183287078      1.46632622149141     -0.87147910366265
  C   1.77504979357015      0.99469654285400     -2.06832604454022
  N   2.64359725728103     -0.12714430763128     -2.00622421537496
  C   3.31228714035249     -0.08988166028795     -0.75233362144017
  N   3.14101063331024     -1.10721693248794      0.04119970564456
  O   3.81041124576159     -0.82325992425755      1.31675313870906
  C   3.86756987516581      1.20221121134903     -0.37091058414132
  N   4.29735637824669      2.15077132292265     -1.17586782495205
  N   1.66051946282722      1.74358288049751     -3.13058855608692
  S   1.04565372318694      3.20504951087186     -2.63907588181796
  H   3.41891016749408      3.57619783789747      0.71848942497860
  H   3.36317262316029      3.08437223821868      2.41656048281101
  H   1.09648641491140      2.14285127338927      1.70192205915113
  H   1.28815323246353      4.55245483398271      0.05060280509013
  H   -0.18824544885723      3.71999267087491      0.50988519755813
  H   2.22318440429760     -1.02649571154890     -2.19895248576489
  H   4.36014239368198      1.78961616570705     -2.12624094037543
