21
Coordinates from ORCA-job 8010optt
  Br  1.39542278172303      0.45474430686590      0.06906225630542
  C   3.16387081082550     -0.06647465985730     -0.40116758904810
  C   3.71233788831240     -1.25820830779085      0.06808400863173
  C   3.39837194250874     -2.36742520377180      0.87924083967756
  N   4.42551514378831     -3.21079978495591      0.94572450584984
  C   5.44566073735502     -2.68518427794862      0.18650099433530
  C   6.73926089460128     -3.39789716488768      0.02120872837531
  N   6.93381949657857     -4.02136989472082     -1.29649402616463
  C   7.93517437758254     -3.43345232340774     -2.01090784902891
  O   8.23850130540529     -3.60656163887052     -3.16720866740218
  N   8.59613142785972     -2.58266513223727     -1.12032088568518
  C   7.96575787433994     -2.48098506091455      0.09972890798237
  O   8.33463027451232     -1.82413013501608      1.03399431846947
  C   5.04518708155942     -1.49076755853053     -0.37151174369022
  O   5.70705864871416     -0.64703293671999     -1.18029221930036
  N   5.02710991699060      0.58079103670853     -1.59532578834078
  N   3.83239847847638      0.75476475246755     -1.17574347468417
  H   2.47094645257709     -2.55246575944769      1.40052571100645
  H   6.81945953442929     -4.14240218501440      0.81575230740534
  H   6.13822661251933     -4.37371936738019     -1.80409735462893
  H   9.37615831934088     -2.01275870456998     -1.40175298006532
