22
Coordinates from ORCA-job 8012optt
  Br  0.51941065270492      0.89762594592635     -0.09845304796835
  C   2.88995676938701     -0.15968821710125     -0.08104953712005
  C   3.62701973227865     -1.31662692074421     -0.06028225229544
  C   3.35809918127611     -2.71074218038869     -0.03028390400479
  N   4.47399592564866     -3.40844946189444     -0.02292823492930
  C   5.53382809766443     -2.52974225162234     -0.04718849363547
  C   6.89049054769817     -3.01854020422073     -0.04662274110198
  N   7.96097364197539     -2.25235008954225     -0.06086607353522
  N   8.98487312405289     -3.15266246031566     -0.05501321774221
  C   10.30425651070432     -2.75208025620773     -0.06616765334947
  O   11.23024047502135     -3.51834748486720     -0.06092202068131
  C   8.47374888023300     -4.41856703663944     -0.03736599765613
  N   7.18491765142925     -4.38306531789892     -0.03161819809848
  C   5.07402248058941     -1.21707613541340     -0.07051070767088
  N   5.72434703414619     -0.01559616964899     -0.09832437327720
  C   4.96861279536411      1.02499056399394     -0.11558974861786
  N   3.59491072057458      0.98122011110724     -0.10757810305508
  H   2.38660799427079     -3.18302753594675     -0.01429058530746
  H   10.38873305485898     -1.65770440511107     -0.07993170531595
  H   9.11085406059335     -5.28842748518112     -0.03082799927955
  H   5.40287684997803      2.01830073518811     -0.13973898556981
  H   3.05322381955009      1.83855625652865     -0.12444641978803
