28
Coordinates from ORCA-job 8022optt
  Br  0.65034006310753      0.39704381158682     -0.44245006919691
  C   2.59970103111830      0.38613421616211     -0.24968824155477
  C   3.29617822663549     -0.75511420412042     -0.58213544085826
  C   2.64872377477672     -2.00689664449247     -1.08069030835230
  N   2.51687409927452     -3.05498672615063     -0.04784696494795
  C   3.40089028084931     -3.09168435372862      1.09071742925809
  C   4.85285544181239     -3.60316201501163      0.88623776382132
  O   5.83721953445112     -2.66344135104196      0.70644815061919
  C   5.70082775725065     -1.81784175783578     -0.50314862746264
  C   5.63411668408256     -2.81332095848669     -1.67495464657081
  C   4.93353046918816     -4.13473492857561     -1.44359041606312
  O   4.55941237691325     -4.83448954145514     -2.34761508712357
  O   4.83592838749562     -4.57719327364646     -0.18135578307379
  C   4.73944647667597     -0.69514121296324     -0.40899144109188
  C   5.23381444166059      0.52688132115893      0.12930077605681
  C   4.40838523852674      1.57535015644663      0.39963255083764
  N   3.04715059098749      1.54441476385027      0.20564489596908
  H   3.20665059687051     -2.38092346554199     -1.94561353270053
  H   1.64828546329046     -1.78141152874189     -1.44261342986487
  H   2.44480237438624     -3.96937540985212     -0.47491724722430
  H   2.94812580767335     -3.76680266838049      1.82200506835011
  H   3.45185040161932     -2.10258508816831      1.54761542682005
  H   5.14974770711405     -4.18132205699498      1.76212684705416
  H   6.68902727300417     -1.35824961621561     -0.53121758284978
  H   6.65916099441956     -3.11565413528242     -1.91101344300342
  H   5.22092537455854     -2.36524054637309     -2.57459674567250
  H   6.29726261671963      0.63269658934957      0.32250502378731
  H   4.80376651553765      2.50805062450527      0.78720507503766
