17
Coordinates from ORCA-job 802optt
  C   2.51446573010643     -0.99569857984824      1.51172663386416
  C   3.58069932271450     -0.30993833632488      0.66525116991982
  C   3.32448958809624      1.18500066817165      0.49869987308207
  C   3.44375972918788      1.96326077002232      1.76783103767233
  C   2.45928672304517      2.69073126086673      2.34722185423731
  C   4.34871131420548      1.83872215665783     -0.41587461284693
  O   5.54564590916692      1.43594025131079     -0.47648214977174
  H   2.73763599097392     -2.05341448427512      1.67549155683097
  H   1.53581341566238     -0.93226543209079      1.02695284070617
  H   2.42594398831690     -0.50707286830707      2.48477171208729
  H   3.63179945765791     -0.75911505272042     -0.33327956946035
  H   4.57153251965188     -0.43886212077932      1.10606869051476
  H   2.31527594994467      1.33768637309094      0.09590962485880
  H   4.44744677565487      1.97704867399440      2.18813914821432
  H   1.45034974179008      2.68116809451254      1.94717788276858
  H   2.64849493079137      3.34735539148075      3.18855352650356
  H   4.06564891303336      2.84445323423787     -0.77115921918113
