26
Coordinates from ORCA-job 8038optt
  Br  1.01867018787653      0.26910238440910      0.13452446111637
  C   2.95084509036520      0.12411369846969      0.04172113432294
  C   3.51211375407698     -1.12022924470373      0.11165655260473
  C   2.69698207201625     -2.38168236262023      0.22155187556726
  N   3.42419143753088     -3.63663994490286      0.27084874185267
  C   4.67611826264440     -3.67187113531439      0.13395237415868
  C   5.60913265332520     -2.51756706868026     -0.09030229009219
  C   4.93200141624573     -1.20525021956119      0.13556556516051
  C   5.63441545765301      0.04303000198268      0.05270518972724
  C   7.13636564937975      0.08889196181524      0.15460980832910
  C   7.83685475338137     -0.57754894973682     -0.95222015412796
  N   8.38839612493803     -1.10887366917933     -1.80749280791670
  C   4.92953798695670      1.21333910255363     -0.01140732435531
  N   3.57555242467856      1.31841494208483     -0.02295852207227
  N   5.25670082909806     -4.95714919547114      0.19771293831630
  C   6.54707522568893     -5.31324852891069     -0.01551412684500
  O   6.95089120596443     -6.45368889006519      0.06565579976122
  H   1.99363713949370     -2.45021612741124     -0.61351082183963
  H   2.06767727201809     -2.34304289153395      1.11603165436045
  H   6.01026240159634     -2.62383901517973     -1.11563279469096
  H   6.47791097256869     -2.64308814303178      0.56638840189732
  H   7.48373632168524     -0.39224421647925      1.07867640043793
  H   7.47305160246013      1.12660385115819      0.18002873435761
  H   5.47072004671264      2.15729606695753     -0.03946828000548
  H   4.60282974574416     -5.70521679952134      0.39065685655847
  H   7.20632996590091     -4.47539560712772     -0.27777936658329
