30
Coordinates from ORCA-job 8039opt
  Br  1.19917345067571      0.21760310612802     -0.25451595623748
  C   3.12014481101235      0.08351916440738     -0.10289592960971
  C   3.70601473875289     -1.20727434781527     -0.10000212711755
  C   2.91827273146923     -2.44791930584671      0.17476599358998
  N   3.63297420009145     -3.71016460487606     -0.06139833254614
  C   4.98266066438549     -3.66174800534350      0.50259120264102
  C   5.82793763344439     -2.56261790623926     -0.13301893667163
  C   5.13927479969574     -1.22452329072011     -0.05060479302925
  C   5.86212801367748     -0.06366980376384      0.00295394828144
  C   5.24517206627886      1.21742181437310      0.01766268668049
  C   6.01688020306438      2.45175319877669      0.08447679293979
  O   6.29818605255299      3.03426453765921     -1.27964022105754
  C   6.82271232857128      4.25031418652620     -1.28333367102533
  N   7.15456815327973      4.91608037605644     -2.30877879526355
  C   3.82333030928005      1.24943745831851     -0.07071637807162
  C   2.37121135005378     -2.57480672076935      1.59727159997121
  O   2.69883521782702     -1.92070135999132      2.55083703356573
  H   2.01421872608693     -2.47350556045434     -0.44525683450366
  H   3.71193343050526     -3.83806373001268     -1.06676853177435
  H   5.44845776840552     -4.64169032286945      0.37353868530558
  H   4.88559145141812     -3.48051708294915      1.57697580870956
  H   5.98411100740054     -2.83139718087538     -1.18813370261642
  H   6.81365275937373     -2.50922283185218      0.33679558407286
  H   6.94783837769335     -0.12534364708747      0.02017339598475
  H   7.00072717387122      2.29651973030678      0.53578473272150
  H   5.48545337570287      3.24463207794346      0.61980574482722
  H   6.96488999601222      4.69634012749030     -0.29474725590763
  H   6.96019040174945      4.36309768032627     -3.14483412309317
  H   3.30266463553109      2.19773539762773     -0.12660969000843
  H   1.58879417213666     -3.35955315447403      1.69262206924233
