24
Coordinates from ORCA-job 8043optt
  Br  0.98276122619914     -0.09113162244915      0.11130957085161
  C   2.88585898370319      0.00535876654879      0.08875667041367
  C   3.57095811346897      1.25851570353011      0.10023731779710
  C   2.81067903765667      2.56190001239816      0.09261226805257
  N   3.60771283390657      3.75253426184338      0.36836651921639
  C   4.88042137072507      3.71550238349531     -0.31243219655598
  C   5.74732482615605      2.50255542230011      0.07153928981261
  C   4.95753681802015      1.21244197113682      0.06817957945634
  N   5.71592585885244      0.10768870384964      0.05321288872544
  C   5.03662856918593     -1.08295182974771      0.08055520159048
  C   3.61570819052316     -1.15577767152687      0.09135087400777
  S   3.16860748921151     -2.82000221628224      0.11293009314790
  N   4.73477538244060     -3.41183164104398      0.10956490389726
  C   5.57569461688467     -2.37909113132016      0.09248537763160
  C   5.69918612536861      4.93742279230179     -0.01623099385217
  O   5.51898656725291      5.67295005731984      0.91654719132331
  H   1.99893619049413      2.52770148985781      0.82203844355443
  H   2.32279493268658      2.70025295231091     -0.88213409041348
  H   3.77193396654454      3.85301223993732      1.36410618545185
  H   4.69357044706869      3.67905099015421     -1.39326547023886
  H   6.16593302302060      2.66056298970944      1.07241052991772
  H   6.59260725474133      2.38610930130630     -0.61105788151655
  H   6.64207742689372     -2.57432673241985      0.08858681747680
  H   6.56338074899470      5.09355280679002     -0.69466908974784
