23
Coordinates from ORCA-job 8053optt
  Br  1.56029776641304      0.27126915272773      0.38324474424973
  C   3.32955615348729     -0.43786284127828      0.44060284601667
  C   3.70880648961084     -1.70131069388771     -0.02701984889103
  C   2.81345331280227     -2.76853174662883     -0.49413034460164
  N   1.53668985965116     -2.89773526625855     -0.24587688456656
  C   3.43573335361719     -3.78971488576814     -1.29972689204316
  C   4.77989356924936     -3.88515433857606     -1.44343184298222
  C   5.65478816961939     -2.95794413156847     -0.82490738506082
  C   5.13005046283219     -1.91566672135411     -0.11193881546390
  N   5.97838240345726     -1.02535298779803      0.62002708878294
  N   5.58444817643463      0.27740967511789      0.87549599950664
  C   4.31112992309297      0.50965659336517      0.77276993158446
  N   6.98373898031902     -1.38344967820477      1.38005007223920
  C   7.68091404809667     -2.46929985618864      1.25552984964615
  C   7.88317839620674     -3.33163557450139      0.08715417969440
  O   8.83680390306933     -4.09030578849660      0.02359952116680
  N   7.05505657685818     -3.13658070708456     -0.99749439034364
  H   1.20578449214468     -2.17539711404743      0.38194277102878
  H   2.76772118931016     -4.52031647841688     -1.73652065137704
  H   5.21628733005800     -4.69557224492976     -2.01727898764231
  H   4.02159681595945      1.53464719603198      0.97241404093076
  H   8.44173970927997     -2.60246738289737      2.01378710079454
  H   7.30094891843013     -3.75968417935716     -1.75429210266875
