23
Coordinates from ORCA-job 8054optt
  Br  0.82940971452353     -0.39881674969379      0.01446681828993
  C   2.88168921996875     -0.04249649975017      0.03310433197027
  C   3.67550883459986     -1.20215110981683      0.04680468846720
  C   3.16624341367279     -2.53709583221151      0.10488090635863
  N   3.89679563584668     -3.61853329367573      0.17617860379795
  C   5.23844892776480     -3.48965161343969      0.19249107912565
  C   5.89046398591874     -2.25761048614544      0.09206638233132
  C   7.35802711104969     -2.26317598491250      0.05326508543054
  C   8.22097381656238     -3.28161345283632     -0.30548869171980
  C   9.54586845657367     -2.81167269146211     -0.13365106575986
  C   9.46007279955356     -1.52026642384915      0.32501540020025
  N   8.13896717271966     -1.20653463246799      0.43528536450829
  C   5.11724956424877     -1.10118384743657      0.01088575196649
  N   5.76613014106024      0.12069511700138     -0.13074908599109
  C   5.61747136716488      1.29558737568594     -0.31755389349282
  O   5.68935593654816      2.44689050514097     -0.50108735844329
  O   3.15462344915583      1.13623253622147      0.02842044754924
  H   2.09339695482501     -2.67390944507271      0.09687064217800
  H   5.81642503726072     -4.39806437249911      0.29831650761161
  H   7.92014738693663     -4.25060608492689     -0.66671404516850
  H   10.45706617694991     -3.35174872222148     -0.33083146648746
  H   10.22465038133620     -0.80210088830808      0.56754500452707
  H   7.75801451575915     -0.31017340332361      0.68447859275036
