31
Coordinates from ORCA-job 8056optt
  Br  1.45311810564612      1.12309225091459     -0.17136510892157
  C   3.30631157216625      0.51856391360454     -0.22051867304226
  C   3.57628335750297     -0.80540592073247     -0.51192791937888
  C   2.50770895270208     -1.75848495870973     -0.96788088480424
  N   1.80852597102899     -2.47127700758676      0.11880565956177
  C   2.49700903439233     -3.66191475729755      0.58901284849349
  C   3.75698182766779     -3.33276356975827      1.40625199011418
  C   5.11587266431036     -3.52086976451961      0.72957760532821
  C   5.29892042505275     -4.90175296187061      0.10240019605191
  C   5.04336375235552     -4.68401651646990     -1.37877644991460
  O   4.82993434554228     -5.54721997452338     -2.19329597686804
  O   5.09889875485226     -3.39433006175618     -1.66533235932806
  C   5.47760160839146     -2.57167707100746     -0.43900027884606
  C   4.98693982842352     -1.18988649952505     -0.46417244286238
  C   5.94944229673295     -0.15639751670359     -0.39808723388493
  C   5.61785850385680      1.15543252511217     -0.18206628810221
  C   4.24712414604619      1.51188866254347      0.00897154151548
  H   2.94487085666072     -2.47332358647181     -1.67492957221368
  H   1.74077301578533     -1.20033992160391     -1.50554714116336
  H   0.88999873005737     -2.73588443344202     -0.21633296872510
  H   2.74893490364047     -4.34650030792378     -0.23852690131250
  H   1.79710757677893     -4.20150493696400      1.23092022383956
  H   3.76986454856554     -3.97514400977937      2.29270290417378
  H   3.67237861475283     -2.30346707746857      1.76122910308024
  H   5.86860914504475     -3.34579017373743      1.50100269238805
  H   4.63756191773504     -5.68091855010189      0.48162308199543
  H   6.32788575841034     -5.25831753064788      0.19793217394670
  H   6.56841163622728     -2.53544527178147     -0.49666172120748
  H   6.99891616651767     -0.42514570676984     -0.49484439029747
  H   6.38873697384326      1.91480836111043     -0.13385202437795
  H   3.94605500930978      2.50999237386740      0.28768831476199
