28
Coordinates from ORCA-job 8058optt
  Br  1.13270154877106     -0.20054631415076     -1.25947684511247
  C   2.63778011038801     -0.19942763626869      0.01830446561809
  C   3.38575413162846     -1.35604898117990      0.21284526014668
  C   2.75209258829524     -2.71545780550448     -0.00065376010648
  N   3.37812494705842     -3.55770122578744     -1.02368822264797
  C   4.53345699905989     -4.29484511996517     -0.54732761812924
  C   5.73509053231391     -3.49751535312454     -0.03310583852568
  C   5.46999913402669     -2.48969255828187      1.09105483144800
  C   4.82895033873294     -3.10571182562033      2.37146250157133
  N   5.84576779765898     -2.99021395935749      3.42331749314005
  C   6.83511469874874     -2.43837020798816      2.86817032717273
  O   6.78690264650780     -2.11398982579888      1.57482312884070
  C   4.74215502871576     -1.23635857272958      0.58515386632454
  N   5.50878945055476     -0.15515739194438      0.49618294837007
  C   5.03860316539739      1.06515251166230      0.17547407534767
  N   5.72650566076740      2.09246335060799     -0.16826769631408
  S   3.26161738649688      1.37981269434541      0.34654982823136
  H   1.70910406775323     -2.56805824735037     -0.27025557137819
  H   2.74322116365226     -3.30029293132556      0.92450325392582
  H   3.63352668399302     -2.97188753923909     -1.81214299467393
  H   4.88328202073791     -4.94338839451563     -1.35496200244788
  H   4.17958366743201     -4.96380155784664      0.24364007215915
  H   6.20177037211200     -2.94609034016524     -0.85388102615417
  H   6.47507131931217     -4.21357799441323      0.34208280995709
  H   4.56393958632443     -4.15722857758882      2.24296358648913
  H   3.93115030120249     -2.56148650614436      2.66546801871000
  H   7.76784143248222     -2.19575180402891      3.36334797811982
  H   6.70910321987581      1.81417211370387     -0.15258287008216
