20
Coordinates from ORCA-job 8068optt
  Br  0.89566864939619      0.03033874782677      0.03032479041263
  C   2.77860572181011      0.02764682709200      0.02856254165893
  C   3.46454521408947     -1.21596320854792      0.02680366334087
  C   4.88785485260977     -1.21087888727845      0.02657116952691
  N   5.58002687388294     -0.02859240036808      0.02776670664809
  C   4.92489750606463      1.19643769112112      0.02860572217245
  C   5.73715968612233      2.34385787805011      0.02863918332593
  C   6.49730659099111      3.28130291759660      0.02877593412260
  C   3.52274053785825      1.19820794726966      0.02921231142659
  Br  2.68054594031444      2.89062516853523      0.03092106552752
  N   5.43462263884499     -2.40793793469776      0.02503910766585
  C   4.37553844299689     -3.27377760494820      0.02387096199920
  C   4.62636650580837     -4.69408622177149      0.02158565519700
  O   3.78729968618424     -5.57476612198315      0.01960013088707
  C   3.13742560201319     -2.58665837887697      0.02504600370470
  C   1.84752409161601     -3.17736510333533      0.02417636467487
  N   0.79396206744945     -3.63956981420848      0.02345963422844
  H   6.58632917637398     -0.05185472638973      0.02717047506552
  H   7.14443705767744      4.12367671007312      0.02827823008001
  H   5.70714315789618     -4.93664348515903      0.02159034833484
