25
Coordinates from ORCA-job 8074optt
  Br  1.08405006854977      0.03188176319888     -0.68939035737759
  C   2.75471534050481      0.09877758281427      0.38056289862243
  C   3.57217024586746      1.24944916283580      0.33108260494434
  C   2.94970457543101      2.57374331688099      0.52117180640378
  N   1.74204392886933      2.79944892855881      0.94894287463299
  C   3.78798952325223      3.71437838835370      0.21825571277704
  C   5.11434019033981      3.58796679795908     -0.03457202405171
  C   5.74011769317842      2.31879964198657     -0.05706092624068
  C   4.98936242055778      1.16876395116140      0.11278508016096
  C   5.67048110783234     -0.13317450252934      0.06128764139456
  C   7.16290476573815     -0.15070774315290     -0.13781970117584
  C   7.96049245626998      0.44223765787059      1.01156367128933
  O   9.03954261031304      0.95912455525469      0.85872560214972
  C   7.38232407025845      0.28459950911577      2.34634141392207
  C   6.87779738983227      0.14316523665086      3.42394666008314
  C   5.05349127490039     -1.30338538617206      0.26561919328494
  S   3.36802500269919     -1.50800849071822      0.58879064054117
  H   1.27711888382968      1.92400845695674      1.17267583541935
  H   3.30595768403956      4.68339274411404      0.25953255934516
  H   5.71624200936489      4.47121133887829     -0.21887163139705
  H   6.80146490069494      2.27380887373551     -0.25236149719195
  H   7.47779572257932      0.37511178258262     -1.04092282308268
  H   7.50509587485066     -1.18650041023008     -0.22541273489739
  H   6.41373678564912      0.03122586469520      4.37459623139570
  H   5.61203547459725     -2.23331902080124      0.27453126904822
