24
Coordinates from ORCA-job 8079optt
  Br  1.36074357346590      0.64980160040399      0.28370491171776
  C   3.16720245070087      0.07895740689845      0.29004797026045
  C   3.66153015906122     -1.17427928346506      0.14069588078206
  C   2.91771554546344     -2.47094380256412      0.06192975651518
  N   1.62779597125212     -2.63496773963304      0.00788557894749
  C   3.74359136208812     -3.64221814487024      0.08569253406448
  C   5.13300161158761     -3.63080552655936      0.08288145667111
  C   5.81955313469540     -2.40644258619525      0.03441644005488
  C   5.11270093618458     -1.22323028152824      0.04733682363625
  C   5.75623627677123      0.03067142963736     -0.22181386566913
  N   5.24338944716252      1.19527080753483     -0.11125183150749
  O   3.94260932765799      1.19123382680178      0.47345934995723
  C   5.92070687027675     -4.87261453341144      0.16041661024017
  N   6.99024107506912     -5.05195725523400      0.83413944340350
  N   5.46077990313591     -5.99433075176647     -0.55030629289136
  C   4.73690471619984     -6.00700420817991     -1.70727452728993
  O   4.52791361258449     -7.01660389988919     -2.34112586069430
  H   1.13510322820966     -1.75276863797309     -0.00691847695702
  H   3.20024623264412     -4.57827394147075      0.12300380342253
  H   6.89783080098096     -2.38835393643897     -0.07820560745622
  H   6.76846128161373      0.03829441423160     -0.61723431299783
  H   7.18879818572750     -4.21291473457402      1.37274264149907
  H   5.92522631255558     -6.86153182704777     -0.31349378332041
  H   4.36371798491122     -5.02098839470703     -2.00672864238845
