23
Coordinates from ORCA-job 8085optt
  Br  1.30110355445034      0.63997327025794      1.39268176119119
  C   2.91333703383745     -0.15801837460907     -0.13651298248196
  C   3.57298903736030     -1.36436240163487     -0.02586162289577
  C   2.88305547428064     -2.63463361064502      0.26291682387473
  N   1.62170003864978     -2.80092959986904      0.45593781091963
  C   3.76868408497745     -3.78781755220747      0.31514169156587
  C   5.10257042075255     -3.69065261561210      0.08309854111919
  C   5.76215041383732     -2.46991540447336     -0.20395854151211
  C   4.98823004334102     -1.34057247986877     -0.24404784108757
  N   5.64367581863268     -0.12775687484505     -0.52075486724594
  N   5.00747944896068      0.94162844650042     -0.60780620352084
  N   3.66486352719104      0.91635745953023     -0.44588368847634
  N   5.87521177305484     -4.90669562213578      0.05671318101823
  C   7.00811533829030     -5.08038316593978      0.84482187908605
  O   7.42439307313735     -4.27119571295642      1.62643753179749
  C   5.48341861958036     -5.93155497161284     -0.79430350141678
  O   6.00842531888745     -7.01317988846691     -0.86154969339637
  H   1.13303228162190     -1.90812214629501      0.41084494211969
  H   3.31196385919277     -4.74177332595972      0.54792313466106
  H   6.82875662217547     -2.41524387579069     -0.35713801482305
  H   3.24513068201687      1.83318100998856     -0.46033908908283
  H   7.47548030585896     -6.05608269774452      0.66753592593011
  H   4.62323322991232     -5.63724986561061     -1.41089717734369
