22
Coordinates from ORCA-job 8088optt
  Br  1.32627412163248      0.24135623540589     -0.06310034547467
  C   3.25375219643365      0.15826998771147     -0.07732543840423
  C   3.85285269550009     -1.11829821129259     -0.08098712963799
  C   3.37414565531026     -2.44661062959684     -0.08127875489630
  N   4.36320078138667     -3.33164114222630     -0.08514256066529
  C   5.53329849553575     -2.60516728907251     -0.08746222403148
  C   6.81952031120418     -3.20434961819192     -0.08941437654466
  C   7.93148958350926     -3.66764875553211     -0.09100211839511
  C   5.26608914365152     -1.24167525670875     -0.08573671601328
  S   6.36739461580746      0.10090798585808     -0.08819753504781
  C   5.19718295602343      1.41333613789769     -0.08890344363631
  N   3.86603222288853      1.29557518712573     -0.08197684628105
  C   5.74471164402147      2.74510731333597     -0.09630806798526
  C   5.04635561348939      3.93350177643475     -0.10132945966535
  N   6.00700219366779      4.91724948517628     -0.10759709827743
  C   7.21719359081976      4.30306112797452     -0.10606818125067
  N   7.10138972020594      3.00431723028766     -0.09950618509854
  H   2.33771498491052     -2.75377715762441     -0.07921861395630
  H   8.90918930866148     -4.08197837400560     -0.09212751097707
  H   3.99110590695893      4.13402414103038     -0.10128669507148
  H   5.84316447061754      5.90751779445325     -0.11242751687187
  H   8.14293978776382      4.85692203155936     -0.10960318181785
