28
Coordinates from ORCA-job 8091optt
  Br  0.95585801328454      0.04457192955055      0.64215710965992
  C   2.79729131531475     -0.03833301514824      0.02865867621385
  C   3.50252218898903     -1.28378009204890     -0.02502567158531
  C   2.87102332020112     -2.54850838915836     -0.41607277827626
  N   1.70312310459416     -2.69041233142399     -0.97614176525195
  C   3.65896573711757     -3.73133439410825     -0.14821083436030
  C   4.96893209720434     -3.65748541852160      0.20005089811765
  C   5.66034446285493     -2.43115125134790      0.36388296373306
  C   7.11847224071580     -2.46792985722901      0.69876735664935
  C   8.11465592818824     -1.64163555783316     -0.17566349629457
  N   8.61358013549439     -0.53348961436568      0.65670649865724
  C   8.19337306467273     -0.77250145352862      1.83873480808654
  N   7.46631423213620     -1.91360131046951      2.04242285659008
  C   4.89879835777070     -1.26156802980011      0.24418012191836
  N   5.51729567476547     -0.01990430879445      0.39898019490526
  C   4.83714243854524      1.17488889448345      0.29872905702121
  C   3.48869589842372      1.18397188325783      0.17348816048901
  H   1.27544821343966     -1.78724367674630     -1.15107908174492
  H   3.17030427499443     -4.68396564179661     -0.30800200688838
  H   5.53057669593492     -4.57696521141050      0.34436382070479
  H   7.41641626839756     -3.51607004360127      0.68405717963737
  H   7.64294448991785     -1.25851512815796     -1.08238500077917
  H   8.96173384488378     -2.26042957601973     -0.47964610745817
  H   8.39203286578338     -0.10952816536755      2.67552832773175
  H   6.72090074449501     -1.89157144845540      2.72476715670624
  H   6.52165950854538      0.02531309770367      0.43800917498034
  H   5.44281400867864      2.06901033494997      0.33544456275066
  H   2.95078087465634      2.12216777538769      0.18029781808637
