22
Coordinates from ORCA-job 8092optt
  Br  1.45126022810600      1.75664778844197      0.02074863180340
  C   3.23424583163900      1.11114737179336      0.02842861262658
  C   4.31716154469942      1.90386905152153      0.03517207683780
  C   4.65150432806671      3.39096817210155      0.03900034267785
  N   3.85842446566504      4.38645697131719      0.03113639520445
  C   6.13701265481354      3.48361195104074      0.05332764381822
  C   6.87722844333813      4.67333812496592      0.06111268359766
  C   7.54402418732090      5.68145928231245      0.06802925680378
  C   6.62041375448703      2.17142931683076      0.05579416138050
  N   7.76912618887461      1.42042330489179      0.06769597986974
  C   7.46310977651325      0.02078635932871      0.06610553683443
  N   8.30988156408252     -0.95069378555589      0.07767847026250
  C   6.01496338652410     -0.04747005875818      0.05011641083993
  C   5.56882584467982      1.25972397419353      0.04404000485969
  C   5.09772081275988     -1.13813214569366      0.04304530593920
  N   5.26864223711312     -2.39639300817154      0.04559006420840
  S   3.31804188873176     -0.65497378711742      0.02721201289942
  H   2.89214261776983      4.06901912131147      0.02143154819893
  H   8.11502268955009      6.57677752921857      0.07351091346621
  H   8.70817024598750      1.77769593815872      0.07989963111306
  H   9.26749746680434     -0.60803160032686      0.08859031473267
  H   6.27357984247334     -2.58365987180470      0.05433400202556
