23
Coordinates from ORCA-job 8093optt
  Br  1.11732530450469      0.10417210893068      0.55315496069407
  C   3.03918476521450      0.04356778539768      0.32526230867582
  C   3.58973618384705     -1.20941365698661      0.15246910545708
  C   3.00700949186924     -2.56414288890988     -0.08766456984478
  N   3.96151372939094     -3.59517463449095      0.37674419047231
  C   5.31245392795439     -3.58552326920634     -0.21822456645438
  C   5.39897398498595     -4.20706114590371     -1.55549688298139
  C   5.48575986507817     -4.77587853837371     -2.60654202979818
  C   5.83996892973196     -2.18140800897246     -0.20039164387175
  N   7.06347124292266     -1.72992992885059     -0.28077683984435
  N   7.00821215108479     -0.35957078192625     -0.17224012433802
  C   5.73137700829892     -0.01984864266550     -0.01667995515058
  C   5.03029348806665      1.19192070314394      0.19641910053398
  N   3.66946425695176      1.18337058974564      0.36421101677259
  N   4.97378632451894     -1.16408875598951     -0.04740677649404
  C   2.58950434233126     -2.74195012373351     -1.50012456333835
  C   2.22012873382667     -2.85537049885525     -2.63582136760053
  H   2.11066704491421     -2.66779128585451      0.52621712601715
  H   3.55274913567568     -4.50889066257553      0.22143088426846
  H   5.94828467956086     -4.18306623663049      0.43990532798683
  H   5.55571594176000     -5.24421312869810     -3.55785023378515
  H   5.54594596543248      2.13802279577746      0.23350477193640
  H   1.91447350207813     -2.93873179437247     -3.65009923931319
