27
Coordinates from ORCA-job 8102optt
  Br  1.35563161670576      1.89876158684429      1.08665700902773
  C   2.52496924762346      0.52342978669887      0.25419951717608
  C   2.65571369009312     -0.73272224490327      0.72909722223740
  C   2.30134445012118     -0.96338490051150      2.15660578828261
  N   2.15250207592810     -2.07451597441299      2.76093197057691
  C   2.06324604674161     -3.16955920714560      1.89269196712164
  C   1.01939421885215     -3.34518014570786      1.06576465532644
  C   1.20330269679855     -4.11224583772467     -0.14022230825497
  C   2.34376745819463     -3.89096398612296     -0.88731611827166
  C   3.30837854132016     -2.85427130660704     -0.82489191775360
  C   3.50752842035741     -1.62617921916050     -0.15802850690861
  C   4.63812526107552     -0.86115729235496     -0.65737228721064
  O   5.84371958782875     -1.48676158720730     -0.98820325315258
  C   6.52467034463993     -2.16969744505812     -0.03637619243310
  N   6.29040874834692     -2.32261352197442      1.18605015486735
  C   4.55151267696871      0.44841884049865     -0.95029024127111
  N   3.30031684299854      1.05288717147736     -0.72221028370248
  H   2.25573801191599     -0.06527122102173      2.76988704689897
  H   2.93209482624367     -3.81833462764296      1.83642907119504
  H   0.11488175170876     -2.76425816214322      1.24439981296656
  H   0.46273711364868     -4.82308113451160     -0.49190208723982
  H   2.51519888466845     -4.57475713055226     -1.71629572022708
  H   4.09917183211390     -3.01761669916053     -1.55289537564768
  H   7.40803162746582     -2.61141240431748     -0.49339179681198
  H   5.40561883891134     -1.88880491273411      1.45675752971910
  H   5.38379693577878      1.07249312430711     -1.24467802012332
  H   2.96119825294999      1.81179845114888     -1.28839763638722
