26
Coordinates from ORCA-job 8105optt
  Br  3.72779553142221      3.61431825827719      2.72883954233911
  C   2.35661339531907      4.87331553871968      2.18067765048925
  C   1.70686731865161      4.78082149233099      1.02017389672072
  C   1.81381807198526      3.64631102914569      0.02772122001321
  N   0.51308904942874      3.09181935614832     -0.30842723619274
  C   0.01082520708000      3.17179180062853     -1.65893454416014
  C   -1.51419910940602      3.36034226815702     -1.69513445170161
  C   -1.91528368589208      4.57153336550124     -0.98846845820854
  C   -2.10301442303225      5.54859831511322     -0.30281054521328
  C   -2.25278865240750      6.63268388526590      0.58635356996166
  C   -1.32493682988297      6.98670114022218      1.52886500860198
  C   -0.00796231255263      6.47589836981518      1.74492009711649
  N   0.46052683028244      6.54643066690461      3.01285764377232
  S   2.01879230172495      6.10642020763620      3.35392024621121
  C   0.79176519098844      5.91140711104094      0.65847861503430
  N   0.73045124025845      6.37926887306107     -0.53961478795660
  H   2.47945430555208      2.88267445643158      0.43194901993879
  H   2.29333324284646      4.00874519794345     -0.88867911399043
  H   0.32209513704905      2.21464310223320      0.14737086421134
  H   0.26881474152828      2.29250676456982     -2.27148723970326
  H   0.46227895938684      4.04433865752225     -2.13203192621901
  H   -1.98990354035238      2.48080225482603     -1.24426082387380
  H   -1.83581337450247      3.38411066573061     -2.74124958097894
  H   -3.20066842483232      7.15786174829980      0.57739209027292
  H   -1.65152262005575      7.69300763818662      2.28758795197090
  H   1.36357244941250      5.87064783628849     -1.15400870845586
