24
Coordinates from ORCA-job 8107optt
  Br  1.03365329087969     -0.65391387774324      0.89927951987106
  C   3.09104796919814     -0.20435785444101     -0.28055390175915
  C   3.75116035225737      0.98355258389451     -0.11149822355047
  C   3.21918493539475      2.31932475118204      0.02691940702272
  N   1.86560308401798      2.60714745157743     -0.03776003102570
  C   1.47568117273338      3.89610709721744      0.48504754545659
  C   0.02310203922462      4.05977840093236      0.49710717279486
  C   -1.16686852342373      4.19134603819602      0.51883256636231
  C   4.26940697305779      3.18492085075262      0.20422057836224
  C   5.49987227014460      2.41677263844919      0.16495085066781
  C   6.80836290085961      2.93952821072565      0.29566462714236
  N   7.87332697637130      3.36841571534304      0.40289847318250
  C   5.17479462201558      1.09154916023057     -0.01715508598199
  S   6.23476291896425     -0.28128957996366     -0.11911880542833
  C   5.11497551838090     -1.63251743258605     -0.31344670084906
  N   5.51088528580856     -2.83729938568271     -0.41779685538815
  N   3.75316419022262     -1.37539214413096     -0.37126232862904
  H   1.27626468550079      1.83239943955598      0.25275609458185
  H   1.91117148934233      4.67904672821931     -0.14443613407713
  H   1.86296539619552      4.06129805604949      1.50220315717600
  H   -2.22465844634057      4.29221236466742      0.53875343430654
  H   4.22697729402893      4.25265274164034      0.34788062021062
  H   6.52258374039324     -2.90538938478534     -0.36394052349430
  H   3.19557986477221     -2.21889256930052     -0.43954545695417
