26
Coordinates from ORCA-job 8109optt
  Br  1.13525314999007     -0.04946502463027      0.16576169777933
  C   3.02677376013494     -0.12103445918613     -0.00232525935078
  C   3.64790499955108     -1.31602920115456     -0.04979251760065
  C   2.91679549542445     -2.64026127689884     -0.01596747986243
  N   3.70635845610667     -3.77745678729346     -0.46548550074545
  C   4.97909117589198     -3.77676640169669      0.20915770761273
  C   5.82324383273458     -2.52136139229217     -0.09125594157182
  C   6.96679418352175     -2.42132184475855      0.96320510551850
  C   6.44196608188504     -2.20687435698826      2.30518306003644
  C   5.97522430244911     -2.03605039275741      3.39509432839605
  C   6.47115054351483     -2.74389834138014     -1.42018148688543
  N   6.90789610511164     -3.02202223285561     -2.44498049694471
  N   5.02093920165772     -1.33123523439818     -0.13848547966175
  C   5.72460117685607     -0.08262664957434     -0.20094620345332
  N   5.07742989844147      1.09404882338714     -0.30899616731028
  C   3.75418607045745      1.19015518926803     -0.14031841093154
  O   3.11116894501262      2.24392120461726     -0.12884105294996
  H   2.01975725252329     -2.56150348340576     -0.62601899695532
  H   2.58339198012784     -2.83850533222469      1.00765689048947
  H   3.84587869912473     -3.73250259892942     -1.47047659935050
  H   5.56082226655913     -4.65924757006102     -0.06203518282789
  H   4.79375869480460     -3.80271818390820      1.28560102193935
  H   7.63237744535004     -1.60024959203050      0.70153300670697
  H   7.53676512804537     -3.35367283812482      0.92604971657596
  H   5.55598663342014     -1.85396124694602      4.35489555699510
  H   6.69848452130326     -0.17836077577733     -0.68003131564810
