30
Coordinates from ORCA-job 8113optt
  Br  1.14574073601414      0.22743973455594     -0.09075491605996
  C   3.09069674267048      0.15613610023024     -0.17459666991912
  C   3.69785449933289     -1.06850503683407     -0.11642360628710
  C   2.94218631234239     -2.36460406991355     -0.00962286529122
  N   3.78239643854032     -3.49678504312936     -0.39631145134243
  C   3.06832078438611     -4.75374133361399     -0.34778203449749
  C   2.63604301420364     -5.18488709886962      0.99969262443097
  C   2.30597881195133     -5.51537210593379      2.10400948387796
  C   5.01553688582646     -3.51418774070311      0.37182788376780
  C   5.90190822519355     -2.35133873769461     -0.06614906827053
  N   6.53885684171854     -2.65042154369779     -1.37235701334610
  C   7.56394295022568     -3.52025809902479     -1.50219674595142
  N   8.06475278929645     -4.06082964653316     -2.54890212069632
  C   5.12780602365144     -1.08509769185655     -0.10440976280546
  C   5.77084290537978      0.18889847254070     -0.21168095808282
  C   5.02530805609033      1.32914739881333     -0.27129007904863
  N   3.65774713591315      1.37409360690643     -0.24222170370177
  H   2.06604530638909     -2.35014548202077     -0.65962810076504
  H   2.57404998338236     -2.49949578151692      1.02351781575276
  H   3.70724884673404     -5.53494819287218     -0.76692896437023
  H   2.18398080366444     -4.67798353915071     -0.98492200801014
  H   2.01097534089603     -5.79927141598603      3.08502069242016
  H   5.52928929525088     -4.46221759077136      0.18874036869718
  H   4.81498205266076     -3.43780748624556      1.45299983499670
  H   6.74002721378272     -2.27492090095209      0.64181065767123
  H   5.97644535725883     -2.42947830753141     -2.18157367452555
  H   8.02980632161449     -3.75674791324115     -0.54208255788558
  H   7.54666434138616     -3.77428692609828     -3.38084005181814
  H   6.85372126010953      0.25112048100857     -0.24393865399790
  H   5.51584472413385      2.29549589013568     -0.34400635494178
