25
Coordinates from ORCA-job 8115optt
  Br  1.77816187568783      0.20861081411035      1.83458392644987
  C   3.00752515601293      0.02292462148265      0.25253390725211
  C   3.67045572006721     -1.18950147730668     -0.00673249342711
  C   3.01482552132616     -2.45884770255120      0.03491597629719
  N   1.72929697787251     -2.55648669820137      0.07633918888789
  C   1.03381836306343     -3.81374528728946      0.09057566829086
  C   -0.38306200294239     -3.56918273309266     -0.44529265433860
  C   -1.20576760309443     -4.77522240261909     -0.43033322685780
  C   -1.85317130545842     -5.78508261180395     -0.40103718709385
  C   3.98570465161045     -3.60148286072323      0.07300248917427
  N   3.83956130730814     -4.72468049441774      0.64517001205746
  O   5.14407279239984     -3.43604334420857     -0.60827255493647
  N   5.76633164127152     -2.18460990182513     -0.76387536453871
  C   5.05031553773227     -1.16098920216365     -0.43152003049146
  N   5.72883264428300      0.06133117136744     -0.57255877773490
  C   5.07084763401381      1.12001745853193     -0.29151785699616
  N   3.78338045530297      1.17162349105512      0.13123704264482
  H   0.93569297059836     -4.20988399518806      1.11137687342312
  H   1.51164907042591     -4.59474100740081     -0.51380322955897
  H   -0.30950149564134     -3.18258734028159     -1.46366807115062
  H   -0.84952964058016     -2.78706704205572      0.15642789763687
  H   -2.42705239990260     -6.67925717385513     -0.37836963987830
  H   2.92781508772926     -4.77439425932517      1.08275266557103
  H   5.55005597549271      2.08967779976408     -0.40685059278733
  H   3.34774106542091      2.06362017799768      0.29591603210479
