28
Coordinates from ORCA-job 8117optt
  Br  1.00576156865599     -0.09924517592722     -0.85070350637265
  C   2.95745821803875     -0.00465073622611     -0.54114562246486
  C   3.59831148616734     -1.18618780300036     -0.14104238632876
  C   2.96411748189140     -2.47218575860960      0.24178864358670
  N   3.30845259759988     -3.63931180094704     -0.62947252862039
  C   4.67421306513370     -4.15246689750727     -0.50054791348687
  C   4.83589599998567     -4.78251813482892      0.90041061797743
  C   5.98429225662714     -5.68025129297825      0.98233891247648
  C   6.92318448315347     -6.42511125560490      1.01563654651283
  C   5.79290656590340     -3.13480827288218     -0.74500534704055
  O   5.81594007696934     -2.13052887694502      0.25710033036900
  C   5.03282243825641     -1.01606017394111     -0.01914339619055
  C   5.61112120687943      0.21136848512599     -0.19961685751720
  C   4.81465009417046      1.31273550809166     -0.52491898833701
  N   3.45151933386263      1.16251601492981     -0.74795109574220
  C   4.72035290155288     -5.27210379693526     -1.52591357685995
  O   5.30090694340608     -5.22323557188201     -2.57851587023535
  H   1.88172494063044     -2.37604781685584      0.21356727400637
  H   3.23133078723586     -2.76649756417364      1.26238717603345
  H   3.18402102690658     -3.32009010189328     -1.58787752515634
  H   3.92142287649327     -5.32975574936801      1.13985880417822
  H   4.95681134969292     -3.98252195342239      1.63113345368033
  H   7.76244489516727     -7.07630970970006      1.04487335618744
  H   5.67565242077269     -2.68557151531477     -1.73466145450949
  H   6.75799414137037     -3.64599228505557     -0.70648805340350
  H   6.68537080748435      0.31283191813677     -0.09489053930006
  H   5.21931461582031      2.30643072713022     -0.64931640752409
  H   4.11100542017183     -6.15543040941556     -1.24988404591840
