27
Coordinates from ORCA-job 8119optt
  Br  0.97630874760379     -0.62754376474540     -0.35931502586027
  C   2.84453111736983     -0.28152293578455     -0.06426112082767
  C   3.68429162636431     -1.35913607804342      0.29508654342397
  C   3.13678466058090     -2.70707372111453      0.63965025535016
  N   3.26984217184758     -3.61692791977287     -0.51174579329756
  C   2.09104330391452     -4.42230758438049     -0.75986963729432
  C   1.77927588297563     -5.39301882379476      0.31116082629638
  C   1.57506288902950     -6.15615449486868      1.21379107173673
  C   4.46654672968600     -4.41929807723775     -0.43860100957008
  C   5.78684068666158     -3.74140891723181     -0.10784620828624
  O   6.77724337794320     -4.46207464244751     -0.08030811740185
  N   5.90573823951256     -2.42801335204478      0.21327113007167
  C   5.07729631242217     -1.26614558630159      0.12737761233214
  C   5.74239212000546     -0.09365871443882     -0.12237078582775
  S   4.94296540146841      1.44761062589135     -0.00061972628536
  C   3.22194301080517      1.04519994154212     -0.36815488149803
  N   2.44147923973618      1.98606815250505     -0.79273085948014
  H   2.08846734455061     -2.63409146625217      0.91481213306127
  H   3.66678986382026     -3.12916268889604      1.50504851853087
  H   2.22371223674551     -4.96747744183980     -1.69794987419427
  H   1.24256260812510     -3.74710383641571     -0.88894063888820
  H   1.38632147647586     -6.83221633658636      2.01221820243463
  H   4.62946084087418     -4.92540788531817     -1.39309315731104
  H   4.38621318232156     -5.20995154077110      0.32662880736661
  H   6.87064193941404     -2.21725874827416      0.43171852601575
  H   6.78183804569059     -0.07460067416969     -0.41918373954062
  H   2.96940694405542      2.84067651079168     -0.94677305105677
