26
Coordinates from ORCA-job 8120optt
  Br  0.65617003776085      0.08236602928917      1.06964763590707
  C   2.92767437028745     -0.20766397747258     -0.02397697205892
  C   3.68634322071266     -1.34736023478100      0.05289395387043
  C   3.04980090853702     -2.66811753371125      0.34661459277449
  N   3.44993250486255     -3.70500645782629     -0.60984143088584
  C   2.39009075138012     -4.67097243564988     -0.84913712180631
  C   2.01514038990455     -5.47366681402572      0.33224568191712
  C   1.73932646697623     -6.10157431333390      1.31554734459578
  C   4.66993731623394     -4.36752772177112     -0.20992689621245
  C   5.95863610579537     -3.56636638739628     -0.20767857219260
  O   7.00780904827444     -4.18419227081982     -0.20807412414142
  N   5.99625773539831     -2.20058482671817     -0.18581180061017
  C   5.06241823831345     -1.15258515956171     -0.16697795039020
  N   5.65095987553174      0.00911214966119     -0.36141150615650
  C   4.90728701034593      1.15181630497247     -0.37211776337453
  O   5.35174667307466      2.27815149248921     -0.50812043222417
  N   3.51845485689442      0.96718499038888     -0.22675030830137
  H   1.97207163061660     -2.51682786577019      0.29514994220635
  H   3.27177269823738     -3.00079029338003      1.37317182228861
  H   2.70278732897175     -5.34779199173223     -1.64767365367979
  H   1.50981017704219     -4.13209608961273     -1.20222962290735
  H   1.48491518102651     -6.65117755329834      2.18955059792088
  H   4.87196608515342     -5.19509955821558     -0.89093739752446
  H   4.59181538490641     -4.80374834980665      0.80063105389794
  H   6.94302824924869     -1.84379537516805     -0.24441026954090
  H   2.95584775451303      1.80831424325085     -0.23737680337171
