28
Coordinates from ORCA-job 8132optt
  Br  1.23672014300437      0.14005170513798     -0.91763376284197
  C   3.03487581584571      0.10586491684407     -0.27367241336179
  C   3.78476645181139     -1.01079736552316     -0.17079637466695
  C   3.22400808675002     -2.32157188722042     -0.69638039377124
  N   2.37510721765860     -3.02899928230762      0.26713169183632
  C   3.05122057017296     -3.87120530983792      1.24437965924941
  C   4.07929644024356     -3.12283253354640      2.08950360932653
  C   5.50008255432714     -3.06637845896005      1.51156974821117
  C   6.03106242973984     -1.82224530680203      0.78350863559832
  O   7.25842247046219     -1.71991663334404      0.75589189614186
  C   5.15781876392064     -0.77560664432374      0.27938171943727
  N   5.70632265098852      0.45782483199831      0.19745198531895
  C   4.93510473740771      1.53644561407242     -0.00210641174616
  N   5.30489407838142      2.76140684885315     -0.18701605488236
  N   3.52374856732540      1.34194506237184      0.04535582760238
  C   4.24067918072800     -3.17689477870152     -1.34087746632931
  C   5.01345067576570     -3.90705868850298     -1.89497720906778
  H   2.54632973179072     -2.04735763483618     -1.50712194136185
  H   1.70826366411134     -3.58972452115427     -0.24956980647257
  H   3.55254155693858     -4.73058138881263      0.77245091063334
  H   2.26681194098481     -4.26795931757928      1.89349700580528
  H   4.13852379079832     -3.64997703590851      3.04510079532775
  H   3.70645584509725     -2.11907980624656      2.30834262083319
  H   5.67664571660841     -3.93581751833077      0.87211925496420
  H   6.21278312130317     -3.15922104683696      2.33276523041064
  H   6.32021441940932      2.77631215591717     -0.14374965803415
  H   2.98452344244465      2.16169189733759     -0.18066067489618
  H   5.73732593598011     -4.52831787375742     -2.36388842326431
