29
Coordinates from ORCA-job 8136optt
  Br  2.08933792830032     -1.16936708077023     -2.40827429722420
  C   2.69973107757475     -0.16124261903282     -0.89463760175030
  C   2.92533110405166      1.18067795285452     -0.99208896273151
  C   2.64266052288634      2.00655251611407     -2.22038959279308
  N   1.27281188063739      2.52689893416935     -2.30847018442103
  C   0.88825541837314      3.50082582754339     -1.29316758355865
  C   0.55285659723379      2.98788268139118      0.13202296017537
  C   1.29359612898704      3.77526871383984      1.23587944760861
  C   1.58454464155803      2.92977722602340      2.46046305676307
  O   0.80011242008234      2.86422558361882      3.37787620866970
  C   2.91067699925961      2.18017653524616      2.49191516376911
  C   3.04484269050517      1.27219999105457      1.28665062939293
  N   3.27743986823706      1.90632901838954      0.11939100947428
  N   2.81448698735236      0.00400333149511      1.48802295420084
  C   2.80291350836367     -0.81562101219491      0.36776340370629
  C   2.81116951260670     -2.20599824100782      0.53321628949110
  C   2.82126972938605     -3.41058939720870      0.67338166684525
  H   2.83465213811834      1.43487535371278     -3.12718061503024
  H   3.31640073205625      2.86630935245091     -2.20430395427813
  H   0.62203558674815      1.74852346591020     -2.32655212645845
  H   0.02744427480710      4.05263461193837     -1.68284653365822
  H   1.71280637038547      4.21487672580023     -1.22891104727626
  H   0.79892702027926      1.92850144095867      0.19546886850715
  H   -0.52191313578942      3.06057235015353      0.31151808491001
  H   2.24130405285708      4.12652042666644      0.82973366030948
  H   0.69414230509223      4.62746414217364      1.56189575198521
  H   2.95993510544591      1.60559275947017      3.41278062187978
  H   3.70898846292738      2.92819401284966      2.45404565208629
  H   2.83224007167678     -4.46506460361014      0.79479706940559
