30
Coordinates from ORCA-job 8139optt
  Br  1.75968074982630     -0.68399489278542     -1.59362395151509
  C   3.27840252939037     -1.36577863087157     -0.63445186985717
  C   3.21039008227874     -2.11127911089963      0.50112510655093
  C   1.90606002492798     -2.52972025358040      1.15356650317690
  N   1.67194923863148     -3.97191705107008      1.34144325853555
  C   1.87371890095550     -4.87695382002501      0.20232418915775
  C   3.35230120976966     -5.08004380478155     -0.14020619776711
  C   3.87864136545080     -6.31569101484084     -0.85369617540466
  C   5.40137293047617     -6.29377397786914     -0.72878601598754
  O   6.00856765251559     -7.29602591964011     -0.42882664671086
  C   6.18018404931157     -4.99247353364146     -1.01954842787528
  O   6.23059147501908     -4.07210776837513      0.07182087134588
  C   5.44745593423178     -2.91950524640020     -0.04339850625739
  C   4.44604545811719     -2.67412590032829      0.93004234222826
  C   5.50622585711310     -2.16218671330480     -1.22247286513381
  O   6.27256755979227     -2.27383615257189     -2.19798118650603
  N   4.49633946528952     -1.14380632457609     -1.26514656614847
  H   1.07272434265062     -2.12912282122303      0.57591911134688
  H   1.83282941480762     -2.08924769506943      2.15222111039623
  H   2.24701516591473     -4.29957120608529      2.10855946028750
  H   1.32585294745967     -4.47004346436556     -0.65256467358431
  H   1.40402407960442     -5.83156600404823      0.46210787900813
  H   3.89286594753319     -5.02854599715062      0.80452482640241
  H   3.68229112818340     -4.22135926876930     -0.71563521820544
  H   3.62399761760234     -6.30518706598317     -1.91931142618289
  H   3.52691174272320     -7.25653793769136     -0.42627313123640
  H   5.78454306836396     -4.50434671213427     -1.91206358377595
  H   7.20573506601894     -5.30430163445660     -1.21961360280612
  H   4.47753046593754     -3.23840467323104      1.85417783427350
  H   4.49318453010311     -0.64754540423034     -2.14223244775541
