20
Coordinates from ORCA-job 8145optt
  Br  0.89689571427398      0.18613723564454     -0.60237183261181
  C   2.96195894676685      0.25629916095089     -0.00783901921560
  C   3.59485754952909     -0.98036882590618      0.13980973729987
  C   3.09079029246772     -2.33177315526594      0.36156262502090
  N   1.75551277440235     -2.64061890340180      0.54303965494635
  C   1.39729781945949     -4.03246106491579      0.59259171755713
  C   -0.05033979198355     -4.21011988231582      0.69369459963563
  C   -1.23593328554761     -4.36072064303470      0.76655968050961
  C   4.08097682116578     -3.25708876790785      0.48864781178477
  S   5.67915484946968     -2.59006334660282      0.41609918187468
  C   5.02214586041989     -1.00439064622814      0.16713223700267
  N   5.88449902853612      0.01960900008662     -0.09310632877749
  C   6.02057185436865      1.18704390177402     -0.30358084668625
  O   6.31731799366124      2.30134836719520     -0.52817958344095
  O   3.37130260265020      1.38763302750926      0.01051194941840
  H   1.09302453823252     -2.02171991307927      0.09540315255595
  H   1.86629222583034     -4.49666757715230      1.46782258795675
  H   1.76373439468028     -4.58640810235617     -0.28629152651189
  H   -2.28987296956821     -4.47762786935998      0.83661474015849
  H   3.96181278118516     -4.30604199563374      0.69787946152276
