24
Coordinates from ORCA-job 8154optt
  Br  1.60513807526360     -1.47140446096848     -2.05584533514148
  C   2.87673285969066     -0.26057879444325     -1.29964942454711
  C   2.51948872314391      0.88241215732197     -0.55550882751630
  C   1.12112615491746      1.08028682219037     -0.32771016231791
  N   0.54954227443392      2.21396244243974      0.05805375291680
  C   1.33221838568856      3.24588468606340     -0.19603685691690
  C   1.43174627255765      4.49252840897540      0.38923895267596
  C   2.72712313530086      5.00389812377277      0.31127209508867
  N   3.84217561529293      4.31059368242471      0.12756978905610
  C   4.13830001608896      2.98767773499523      0.16908026903618
  C   3.67903233877552      1.66382681657863     -0.00438799791349
  C   4.71797575063823      0.68450142182385      0.38131681116736
  C   4.88894782378933     -0.51758589879246     -0.23128725120684
  O   4.09580421437755     -0.87870219293922     -1.28004033966490
  C   5.93794260308094     -1.32626419405629      0.26783967649393
  C   6.56730255735556     -0.71107923384735      1.30615546947821
  S   5.87304089937971      0.81955154327839      1.65622571533928
  H   0.48230293563808      0.21042027077731     -0.40453667670464
  H   2.08827989211269      3.09036679379835     -0.96387313900662
  H   0.64353185645392      4.97323761072414      0.95515018334521
  H   2.89901028892609      6.06502208506949      0.49389745504332
  H   5.19127422971841      2.92881557299044      0.44371067523013
  H   6.19735588784541     -2.29482126087685     -0.13340181433319
  H   7.40460720952982     -1.07155013730045      1.88076698039819
