30
Coordinates from ORCA-job 8158optt
  Br  1.71712333033279     -0.50589829133624      2.85604037784464
  C   2.73633701356329      0.27001674392660      1.38729877525046
  C   3.40301217409845      1.43057750961959      1.62093015856935
  C   3.03270956753484      2.52750838403984      2.57075893961174
  N   1.78115737940086      3.24118307648779      2.22774968986896
  C   1.59840111672755      3.53311838149180      0.79577256218354
  C   0.74867999396113      2.48737292143010      0.05627042576123
  C   0.89999596362660      2.47392198684530     -1.48974713220754
  N   0.84200312482236      1.10313182061412     -2.01715648030005
  C   2.14020952425364      0.37707112858550     -2.10346406363837
  C   2.93800277377388      0.50067896252157     -0.84959119715685
  N   2.54958581561392     -0.27446172046273      0.19834706398363
  C   3.86889986213929      1.57945813419906     -0.70115109416530
  N   4.41685522665654      2.35324291100991     -1.57397555129525
  O   4.25245179171747      1.84269933005735      0.60127705779510
  C   -0.28635195818426      3.21026175390124     -2.04628671406003
  O   -0.29250653358707      4.34158152250176     -2.45148044726883
  H   3.84799700375684      3.25380798573244      2.57274635165507
  H   2.91575676074393      2.14622651642573      3.58494762880064
  H   1.00402707548915      2.67270853569534      2.54777305318487
  H   2.58222019570292      3.60987544140359      0.32845592672484
  H   1.13095152596704      4.51696428465604      0.69269784858274
  H   -0.30786322245641      2.64103144604648      0.31597746147589
  H   0.98338894402572      1.48792014339268      0.40615101310283
  H   1.80919338220689      3.01386774248162     -1.77898777879630
  H   0.43466171470073      1.11430592046083     -2.94722681184683
  H   2.71880204793454      0.73083055766552     -2.96591186195698
  H   1.89477898088584     -0.67370086043401     -2.27010705187478
  H   4.15050416725765      2.05582881525737     -2.50655033320753
  H   -1.22498474266617      2.61386891578371     -2.02855781662090
