29
Coordinates from ORCA-job 8159optt
  Br  1.39633313470982     -1.29225268138154      0.86248340245785
  C   2.84713887165665      0.06121369812584      0.71253989834112
  C   2.88374687914567      1.17022638528602      1.44866531777672
  C   1.73688564481567      1.76969839523544      2.19111151357409
  N   0.80642433518814      2.46848432053387      1.26189539523628
  C   1.46562699790868      3.26334504782487      0.20951512236561
  C   1.57710549368682      2.46728656115581     -1.10796650040144
  C   2.68678241773895      2.91830795996015     -2.06656589216311
  N   3.23765098519555      1.76396910538166     -2.78998194082207
  C   4.50710098525005      1.23154543173534     -2.23151504529112
  C   4.46370585707436      0.95085110503287     -0.76578433104804
  N   3.68734640904618     -0.15324390611932     -0.31952672917541
  N   4.75193164500974      1.94016410068133      0.09504729835345
  C   4.12763541366506      2.02622804549945      1.27709881136056
  O   4.42532540778722      2.81561569780838      2.18694948210523
  C   0.69291644694313      4.49273547813726     -0.02191914160843
  N   0.07418213225785      5.43849455283199     -0.22161413584723
  H   2.16115259455409      2.45758647327581      2.92800791024132
  H   1.15332258616495      1.00142460983988      2.70095035417398
  H   0.19804991467458      3.06561485484932      1.80780286140556
  H   2.46661644509450      3.59239948036553      0.51697530086140
  H   0.60567708171569      2.47289325832007     -1.60695883264997
  H   1.76520823433618      1.43526956776207     -0.83874597460678
  H   3.47232648962690      3.43523005194734     -1.50305279498876
  H   2.28737786070345      3.62679053790370     -2.79513742059075
  H   3.39773971692756      2.00849112984551     -3.75940901405691
  H   5.33174575629787      1.94144819025009     -2.37000535684291
  H   4.73185908506118      0.32317885976903     -2.80256876947711
  H   3.83008517776340     -1.08799631185781     -0.67229078868309
