29
Coordinates from ORCA-job 8162optt
  Br  3.56521186120558      0.59852110615342     -3.93526716851013
  C   3.77166412322423      0.65613019484851     -1.97996493522598
  C   3.83803932124712      1.89694332680978     -1.37273585870905
  C   3.33080988360135      3.20427528116539     -1.91729076194682
  N   2.26458323587861      3.83361019269302     -1.11862534463612
  C   1.05307164068757      3.06627546477318     -0.84108739091346
  C   1.07163511973147      1.90336925774142      0.17802628322384
  C   1.57156107994534      2.30629946971457      1.57462937706522
  N   2.19504738263196      1.24165815079990      2.36182987579966
  C   3.44830388258783      0.68815706366530      2.14187003801210
  N   4.10016093777483      0.22355614437095      3.13390308005509
  C   3.84375461824268      0.64892656390112      0.70491240087394
  C   4.06619328528575      1.82921410778370      0.04468825638420
  C   3.70960765353832     -0.53539330651347     -0.04283712270759
  N   3.82706146595147     -0.52286889351380     -1.43249961282045
  C   3.44066890012218     -1.77929490626310      0.57614435969619
  N   3.24662209728400     -2.80102613640748      1.08343341606785
  H   2.95883244286730      3.06578135564780     -2.93235826413208
  H   4.13178511044858      3.95050959367810     -1.97095390750421
  H   2.65217846857261      4.20747077837757     -0.26309389459168
  H   0.70367327501306      2.66504588419997     -1.79650964030696
  H   0.29817172630190      3.79070205323292     -0.51465964276778
  H   1.65061612875824      1.07005400378120     -0.20784484381354
  H   0.04358390235754      1.53883360599850      0.26344448471814
  H   2.24484831285245      3.16491242023191      1.49331281206436
  H   0.72070714290289      2.64744375946021      2.16872303531317
  H   1.98685467785086      1.26264451205667      3.34929551263518
  H   4.93604048352485     -0.24704414698224      2.79807623402863
  H   4.18471183960935      2.74629309859495      0.60843922264828
