25
Coordinates from ORCA-job 8164optt
  Br  7.49866877592140      1.73620376586816      4.00745676415845
  C   6.81607525817713      0.12454424198042      3.30657329043855
  C   6.14776378348448     -0.77301095040423      4.08148762857819
  C   5.45091214377114     -1.94333687476571      3.42149975882325
  N   5.64042224283401     -1.99663190281421      1.95980048867915
  C   7.02910999452062     -1.77368941698462      1.76549637333608
  C   7.94448612304099     -2.72425182351342      1.60173525807666
  C   9.39398109617906     -2.53131050954581      1.89066053438029
  N   10.35939985023794     -2.83764275902980      1.07562790070591
  C   9.70376728460520     -2.02956938721720      3.19943620197615
  N   8.76296503432746     -1.79584205259505      4.12233434016083
  C   9.07872904341968     -1.09430036566019      5.19356146966288
  N   8.29258062417535     -0.74112563210975      6.20925993854654
  C   6.96045529041936     -0.71341846823113      6.28513696562050
  N   5.97551876968942     -0.76005830343197      5.41887055121244
  C   7.37314423172857     -0.33176511099867      2.04300240200296
  O   8.11861760987058      0.30005816916735      1.32637545781258
  H   5.86770922309688     -2.84112942777590      3.89720513527737
  H   4.39041551735227     -1.87081476313605      3.66939060978378
  H   5.39770136017909     -2.92822622259791      1.64101725576154
  H   7.61191650265012     -3.74919519492028      1.44810630943020
  H   9.96494362520553     -3.13981991513160      0.18615031972070
  H   10.75397720061079     -1.79745666524878      3.39083013797015
  H   10.11803024772381     -0.76256625310969      5.30838660585480
  H   6.60970916677903     -0.62064417779395      7.31359830203000
