27
Coordinates from ORCA-job 8168optt
  Br  1.14462525068896      0.44087926966137     -0.80825494552916
  C   2.99918277168165      0.14731777594311     -0.59816632355329
  C   3.59701885923072     -1.08573175857538     -0.69901530106734
  C   2.82935971281247     -2.31530342248609     -1.10820229612498
  N   2.19675745802666     -3.04839462902071     -0.00411478896431
  C   3.00683745509296     -3.93074855970022      0.81861370180533
  C   4.33996829230468     -3.34385441752922      1.29093589168950
  C   5.43478796409179     -3.45268410044243      0.24782242904921
  N   6.09947972982571     -4.53275336650415      0.02213547094153
  N   5.69179009516253     -2.34036509815592     -0.48360519285597
  C   4.98043080973101     -1.12152728206504     -0.45173421129535
  C   5.69392133044317      0.06535364437171     -0.16911425105520
  C   5.06424875487147      1.31587530322339     -0.11048397165442
  O   5.52704167383714      2.41944175504609      0.10216752782716
  O   3.64373510840093      1.30199584650225     -0.30062377771710
  C   0.85200331883058     -3.21563290173764      0.01612196549544
  O   0.05216840288244     -2.79756343444718     -0.79148031795018
  H   3.50476704315021     -3.00060605079439     -1.62823412833771
  H   2.02167534424426     -2.04511372083050     -1.78543495306560
  H   3.22758360279353     -4.85623006729282      0.27021104359255
  H   2.40753212425675     -4.20063499303738      1.68949736818819
  H   4.66879998228837     -3.94299862501160      2.14278432486774
  H   4.20715602596790     -2.31371355922850      1.62162420669009
  H   5.82005134655398     -5.25633857363068      0.67722328341291
  H   6.51935885518780     -2.40339234551661     -1.06200292772193
  H   6.75332985284122      0.03927621615030      0.03807540839202
  H   0.52738883480102     -3.80555290489174      0.89225476494085
