22
Coordinates from ORCA-job 8169optt
  Br  1.20632585515403      0.33845302158069     -0.44036874011611
  C   3.04096352440114      0.01153483155104     -0.05792958889697
  C   3.62755130357429     -1.28852653213851      0.03333616283094
  C   2.96343997994871     -2.58033722480468      0.11541557004423
  N   1.70002536532642     -2.84820709641167      0.26183956013678
  C   3.86888512516191     -3.73486710812763      0.04247750164508
  C   3.23014217648490     -5.10400666065974      0.01244699899202
  C   2.63886195943733     -5.43671838931555     -1.28683000662564
  N   2.21243333723905     -5.74492961663364     -2.30591548826233
  N   5.15733334872770     -3.68466769145727      0.05915680881207
  C   5.76904784558089     -2.47155253792462      0.11069415099211
  C   7.18512834199851     -2.41322298468486      0.16623589310688
  N   8.32866322990191     -2.26021976225222      0.21568139476353
  C   5.03921367295701     -1.27692173311919      0.08470077827463
  N   5.70355275236949     -0.07820540726910      0.10666365570466
  N   5.14225952240509      1.15906845451862      0.10656940288727
  C   3.83361533316230      1.15531745402176      0.00133038609039
  H   1.14027032969090     -2.00862943377649      0.33207315743643
  H   2.43209712525684     -5.15556993840443      0.75463986911195
  H   3.99977815046894     -5.84396882293987      0.22811804088093
  H   6.70974728955125     -0.08212775214824      0.16255315241293
  H   3.37366443120135      2.13430493039564     -0.04488866022179
