23
Coordinates from ORCA-job 8173optt
  Br  2.03609562676179      1.42883408674033     -3.41029375028081
  C   3.29939509130721      1.12965674189045     -1.99671768923886
  C   3.81206455345060      2.15055358181968     -1.28616565122400
  C   3.25105890882024      3.52450985486410     -1.20383927257151
  N   2.07635842273482      3.79885536839198     -0.81097764889409
  C   1.13089940118511      2.80652279364779     -0.53255227026175
  C   1.06785756481673      1.98212000870969      0.51540748416459
  C   1.99423601244494      1.92183097771825      1.67173196163332
  N   2.46574777968890      2.89481572198353      2.32226105123276
  O   2.27596243005759      0.65517457161263      2.11588417026416
  C   2.49269876952105     -0.29076712131138      1.11266710175497
  C   1.54039900665265     -1.34138934651231      1.00109722546182
  O   0.47375309378555     -1.41000924306339      1.61482506947229
  C   3.57359554250412     -0.05593568413804      0.26283709279109
  S   3.60269093240586     -0.50768511525855     -1.45742591032974
  C   4.51296816769109      0.99154067731678      0.54942611855227
  N   4.72868035132190      1.99658596984374     -0.25105196795582
  H   3.94304194044732      4.35292946164169     -1.34719401501975
  H   0.33580411074000      2.76039502631128     -1.27056934539791
  H   0.25732876037548      1.26237069232428      0.54964208480439
  H   2.12576449389016      3.76163306925336      1.91074144363003
  H   1.82394504576227     -2.12410214737451      0.27591383468494
  H   5.00965399363456      1.01856005358860      1.51735288272760
