22
Coordinates from ORCA-job 8174optt
  Br  1.13822354856170     -0.04049481777039     -0.06077221052966
  C   3.01406007858456     -0.12153082666979      0.03301072719426
  C   3.73898083981763     -1.30130757047928      0.05813964303374
  C   3.20763431477711     -2.60125010309707      0.04951470820937
  N   3.94811834131604     -3.70779626782976      0.06875627496548
  C   5.26682417004676     -3.55362831243196      0.09207041320775
  C   5.93776673818786     -2.32258939483768      0.10310137984417
  C   7.40119572762650     -2.27689638343247      0.12699154353203
  N   8.20029366934531     -1.31406352672237      0.16159197783981
  O   7.99999450916482     -3.57121508566316      0.17569973062360
  C   8.41206792504786     -4.09816605005111     -0.97448814324576
  O   8.27063606543220     -3.64215544339750     -2.06836219285236
  C   5.17396184704073     -1.12610427206015      0.09468999988350
  N   5.73360643458100      0.08352062522627      0.11560109100392
  C   4.97339249974581      1.20514709601321      0.10285602068942
  N   5.36996010242137      2.41207405039359      0.12851979950447
  O   3.57411225554972      1.09560275943599      0.05479787682328
  H   2.13167982815007     -2.73220540584321      0.02806935035386
  H   5.84865995155712     -4.46657396927106      0.11126003373268
  H   7.64994775285050     -0.45036831242791      0.15645882091486
  H   8.91079706618653     -5.05578194395805     -0.76975954135563
  H   6.38508633400873      2.39478315487387      0.15825269662721
