25
Coordinates from ORCA-job 8177optt
  Br  1.07982031433888     -0.46958966599332     -1.17909660416756
  C   3.23255218088685     -0.11000973926328      0.15701401609945
  C   3.76926266262662      1.16840429181874      0.02989332186354
  C   5.16098495072590      1.24994089743805     -0.02576629970968
  N   5.82741739909815      2.45558948899523     -0.04155194054574
  C   5.10292283892469      3.66430655139528     -0.35537811851210
  C   3.79115887222394      3.65096199566805      0.41023046356798
  C   3.03849225590743      4.95074556300860      0.25014521317405
  O   3.56787602379905      5.99606377839515     -0.02094637436224
  C   2.91037629288458      2.43399062532431     -0.01204311660468
  C   1.78277329027910      2.33918776639807      0.92684308476816
  C   0.90299749388161      2.31888124958938      1.73735903753358
  C   2.41900706248882      2.71151596547883     -1.37527329050644
  C   2.08691511863112      3.05362753994683     -2.47328522996527
  N   5.93873673270949      0.15672899752861     -0.01395451786273
  C   5.30120699509185     -0.99897459627011      0.09365754559635
  N   3.99293819394812     -1.19108969828778      0.19801403446825
  H   6.78792051592539      2.37858901476981     -0.33644367191198
  H   4.88140726128842      3.76116523107457     -1.42543840250010
  H   5.68695506720225      4.53260536909584     -0.05406164845014
  H   4.00134128415760      3.52892904941112      1.47943124803007
  H   1.94959111396228      4.89261226645314      0.42172600356011
  H   0.09787323928392      2.23880564279769      2.42610286827025
  H   1.76049793057205      3.28207361774642     -3.45838135926298
  H   5.92697490916178     -1.88806120251927      0.10520373742985
