17
Coordinates from ORCA-job 817opt
  C   0.94365844890739      0.05532931861044     -0.03091223249458
  C   2.42047930453759      0.05474513976541     -0.20455250711723
  C   3.28867726744549      1.09632590745881      0.03946633513051
  C   4.63642464782389      0.61242433026884      0.04398452786768
  C   4.64592801552871     -0.74411729852672     -0.19932747744590
  C   5.78436592443436     -1.68152913767002     -0.00658213422184
  C   3.22217126494993     -1.21081026730624     -0.14764581289222
  H   0.54173989856680      1.07162554761811     -0.04464884586598
  H   0.66479092160724     -0.39929749824488      0.94208103372345
  H   0.42037881023213     -0.52174105219972     -0.80023985390153
  H   2.99858679481035      2.13440715826547      0.15523672179604
  H   5.51993942570679      1.22896579225004      0.16350994097099
  H   6.74185436232615     -1.15446729584603     -0.02467209787964
  H   5.82308679677607     -2.47147508447449     -0.76339128245389
  H   5.70493705315703     -2.19436558277058      0.97430303359793
  H   2.94565544801301     -1.98472126518510     -0.86947116896498
  H   3.04832561517691     -1.69129871201332      0.87586182015117
