24
Coordinates from ORCA-job 8180optt
  Br  1.49899399252684      1.86974449397743     -1.14788461135831
  C   3.31624618567399      1.33971482311863     -0.96349070720398
  C   4.24310230889612      2.07711604334092     -0.28214896664067
  C   5.59693661426158      1.63136092649990     -0.07667511837157
  N   6.64758642961699      2.36405732521252      0.31938467478168
  C   6.74221152589175      3.69207849570000      0.26667052490102
  C   5.85441765880723      4.69564250446588     -0.09163072267868
  C   4.43483930846516      4.61716344653430     -0.17533553421225
  O   3.69172253278741      5.50362649391936     -0.59133720136128
  C   3.82797231579537      3.34895487550089      0.38497394800296
  N   3.02217343892105      3.41646530035484      1.35848503335453
  C   5.86225239478010      0.19870320631743     -0.20471711916593
  C   7.13243425687178     -0.28398485146949      0.46793873911044
  C   7.36171835336762     -1.72266682066944      0.40286775240814
  C   7.55584039611375     -2.90487308380897      0.34574426729096
  C   5.07255090001060     -0.65569571952621     -0.86986212981635
  S   3.63340331889043     -0.18964561723320     -1.73878262456459
  H   7.74929627018553      4.03944198831578      0.49733621285647
  H   6.26434103035691      5.69001855648829     -0.22878555057265
  H   2.69364290316445      2.48075619152234      1.60631512680839
  H   7.12296243508738      0.04351764874492      1.51006086892343
  H   7.97363390603376      0.24630686441580      0.01787299840523
  H   7.72634746848398     -3.95266695050548      0.29691858537714
  H   5.29537405501013     -1.71313614121646     -0.92091844627414
