25
Coordinates from ORCA-job 8181optt
  Br  1.09509122226557      0.11235449763261     -0.61904423924094
  C   2.84678814752187     -0.10460573889500      0.26945491056283
  C   3.55747937866436     -1.30639302101381      0.14275514463947
  C   3.28181453984301     -2.69420883389991      0.13708431143539
  N   4.40126799802318     -3.41096015812449      0.06209838839148
  C   5.45193617598359     -2.52452878235592      0.01375575804260
  C   6.85798610496260     -2.98857011026311     -0.09858702769179
  C   7.42531029581244     -3.15653677858651     -1.48781625250190
  O   6.90341387774928     -2.86194739542230     -2.52447421452554
  C   4.96645455892859     -1.24439462019170      0.06345073768375
  O   5.68017911394420     -0.06075156766014      0.02430949641766
  C   5.01017667076409      1.09762116600365      0.03573215603588
  N   3.64287943363118      1.04959359988536      0.16284479932433
  N   5.72107214398820      2.16390140393048     -0.06033429382001
  C   5.01735137659693      3.42176916410807     -0.12944691177042
  C   4.57271306351106      3.82376423944480      1.25646357807189
  O   3.42563085167625      3.98583397950066      1.58520040748432
  H   2.30763060786095     -3.15991618308848      0.18443215380240
  H   6.97134070685961     -3.96011454196854      0.39653184858613
  H   7.55178595469503     -2.30860954117915      0.41360466360935
  H   8.44976189780817     -3.59576568221861     -1.49490232908569
  H   3.18121874192917      1.92652521223608      0.35320880737464
  H   4.14088970749167      3.41796263521243     -0.79079409492130
  H   5.71357367866202      4.18191086415109     -0.49674116931809
  H   5.38925375082683      3.90506619276246      1.99921337141356
