25
Coordinates from ORCA-job 8182optt
  Br  1.22714465706121     -0.38517595717496     -1.45905741465413
  C   3.02024830924561     -0.20213929889104     -0.79322332806712
  C   3.60795072738830      1.09595281292893     -0.59493027848344
  C   5.05006835542885      0.99258119872052     -0.56997328655763
  N   5.84161286159232      2.12390162001059     -0.86664627858816
  C   6.68026040168529      2.60979644593795      0.21604253090002
  C   5.89269384340662      3.51786367305798      1.16763347701753
  C   4.46219268108183      3.05202169567831      1.41950795551520
  O   3.66758671088446      3.33681841819237      0.29086839274822
  C   2.89066374004497      2.28791681983572     -0.28268503302968
  O   1.71454828315469      2.54136650500941     -0.45979029488969
  O   6.53050704295247      3.55072458052424      2.46779862167740
  C   7.65224003878456      4.24227232325144      2.57792939426230
  O   8.19556223105091      4.86763925006075      1.71220845897161
  N   5.68231602621090     -0.11875092554457     -0.30919908601896
  C   4.93616134105475     -1.23810337009855     -0.20336656486252
  N   3.64392220915443     -1.31477255844052     -0.56485753609816
  H   5.26193086047700      2.86541173468611     -1.23485496274527
  H   7.54171955018361      3.14965411094549     -0.17685589823261
  H   7.04395053677935      1.74043931046851      0.76596544379274
  H   5.86167831594054      4.53898796488367      0.78036909140921
  H   4.06826655775920      3.60689841403056      2.27640993480222
  H   4.44591000852006      1.98697542902817      1.66720599174009
  H   8.02899799614336      4.16850306652111      3.60682911423226
  H   5.43686671401462     -2.15778326362224      0.06467155515858
