26
Coordinates from ORCA-job 8186optt
  Br  1.09531447391489      0.17221235598669     -0.64194562487977
  C   2.89711935272751     -0.01046407480940     -0.07687351590956
  C   3.48206944868335     -1.26303738532015      0.18784233562938
  C   2.70520118535367     -2.55694744098607      0.19672419944551
  N   3.04669927816001     -3.53069138155261     -0.84482078871776
  C   4.26645890167797     -4.27394154614397     -0.61015888220691
  C   5.57806210909412     -3.47583653361194     -0.47768484188265
  C   5.89592347477401     -2.73541944214604     -1.76022861174216
  O   5.76529143880451     -3.23248076682054     -2.85036182436500
  C   5.65968242599095     -2.50023346572998      0.71566326812083
  C   5.35209244850497     -3.16963866967193      1.98046502452172
  C   5.10435559569703     -3.73884560646878      3.00682010422093
  C   4.84683734887380     -1.23353659077867      0.49379065070290
  N   5.60969424278482     -0.16112140513815      0.56819375704038
  O   4.96370227618456      1.06894381180383      0.39012327536783
  C   3.63152601042409      1.20026898953737      0.02562509997222
  O   3.24382135894614      2.33670918977967     -0.15403371873670
  H   1.64670481951131     -2.32513670007353      0.10280898905521
  H   2.83405258151684     -3.06733253717695      1.15599962627424
  H   3.08249517591995     -3.06675418693065     -1.74635433274245
  H   4.39923653800442     -4.97953223108576     -1.43143827392954
  H   4.13701867250063     -4.85178846250058      0.30874908483956
  H   6.37482123924389     -4.22182609793600     -0.35616576725281
  H   6.28069463114301     -1.70488624825299     -1.64992454484946
  H   6.69341496928205     -2.14953085944392      0.78650999543228
  H   4.87771000228141     -4.22415271452892      3.92467531659178
