24
Coordinates from ORCA-job 8188optt
  Br  3.52587409910677     -1.04694827436370      2.13008286804647
  C   3.37802356420938     -0.16342208412459      0.45021351508529
  C   2.49377779677052      0.91595439981169      0.34074442224336
  C   1.57444523117163      1.31875746457162      1.36102287815622
  N   0.45176147197894      1.90119135743846      0.95656932187566
  C   0.12073586530939      3.15402888526476      1.37225167690389
  C   -0.31385213670243      3.97860250286032      0.37463452331655
  C   0.31784701190847      5.28822161740338      0.12972639944421
  O   0.27523052454900      6.28535990386433      0.82941470348336
  C   1.14832470191792      5.22502876046764     -1.12733622570522
  C   1.91319921141061      4.16293442196985     -1.48761290011079
  N   2.20145211787530      3.11602991697566     -0.65477827870125
  C   2.57070498203120      1.77689847960832     -0.87139606681338
  C   3.12063759275069      1.36958900751130     -2.02729156551304
  S   3.87203663768551     -0.17544121567313     -2.25928001185303
  C   4.11170332950868     -0.80812036842506     -0.58962223846645
  O   4.81074561901857     -1.80276527000980     -0.49711694426621
  H   1.87555841320414      1.24975038736019      2.41058977917702
  H   0.51102585981774      3.56291560919476      2.31159287539738
  H   -0.52161179905863      3.43671716870380     -0.53971990371977
  H   1.17744665049113      6.11756385520012     -1.74024054199629
  H   2.40995966757981      4.15193936340536     -2.45333996186647
  H   1.91756069875399      3.28116741333543      0.28782332829117
  H   3.22841288871164      2.04604669764923     -2.86493165240867
