27
Coordinates from ORCA-job 8190optt
  Br  1.55449383592387      0.66815296520269     -3.02942278108127
  C   2.35796461734534      0.70592885291475     -1.29961514570988
  C   3.06137900433782      1.79495872799710     -0.90632183489014
  C   3.02611512700015      3.17163401845738     -1.50842010176700
  N   1.75476464553756      3.90806255221599     -1.36222334050979
  C   1.12964601013963      3.82749983092505     -0.04642898775294
  C   0.07555087189694      2.69898453289967      0.11319359383701
  C   -0.17942717509068      2.24469926680489      1.57655659698611
  O   -0.38196326508220      0.85381696403655      1.66394090459179
  C   0.78811557676741      0.08464355988431      1.95667382799286
  C   1.91289802953076      0.36441119058910      0.99482410674995
  N   2.69751036554025      1.32562718078347      1.37270947802232
  O   3.63605554361123      1.71017833992865      0.34444388141375
  C   1.88050597619189     -0.25533482680625     -0.32822013800752
  O   1.28343210179013     -1.32959277960817     -0.57187580088824
  C   -1.17847773379339      3.11157680591139     -0.52252038409977
  N   -2.15557570282894      3.48337046403594     -0.99687716751381
  H   3.24453206585769      3.12926375635191     -2.57553261088493
  H   3.81209824183087      3.75661546604361     -1.02625835361330
  H   1.10448017483861      3.61211407387011     -2.08192461102978
  H   0.65219184760943      4.78346330795061      0.18592254157738
  H   1.91118753490935      3.65738990731138      0.69580085907926
  H   0.42137349992371      1.81932929608164     -0.42715368082650
  H   -1.08190542269102      2.71790529057280      1.96641140258966
  H   0.67565769218652      2.54989304495966      2.18521274263293
  H   0.48269870518464     -0.95560043243786      1.87241674400864
  H   1.11869783153241      0.30900864312357      2.97568825909319
