29
Coordinates from ORCA-job 8193optt
  Br  5.13367220365535      0.45396386534272     -1.88849917005722
  C   3.65184035194959      0.43915636236589     -0.69972470630222
  C   2.41874379550078      0.88154889906756     -1.03516333056486
  C   2.06103322870905      1.54555489155211     -2.35550680811362
  N   0.93936352252261      2.47174525373598     -2.21141671684575
  C   1.21142558901821      3.51274222472127     -1.21346345148976
  C   -0.01725161962529      3.81013612277749     -0.34607903628145
  C   0.35328262162471      4.09232053775770      1.10290782195633
  O   0.90244822624618      2.94840941383962      1.73894078155289
  C   0.08823617896262      1.90165739781887      2.01648242502973
  N   -1.15208121071626      1.92610486828084      2.26163556076283
  O   0.76506039490818      0.75223309928319      2.10257086852312
  C   1.75120548599628      0.53057410289077      1.12992359586833
  N   1.40641789192978      0.82103493737136     -0.12469869444845
  C   3.00342264847385      0.07292741573537      1.58933011083554
  N   3.44273472553106     -0.14263212020812      2.79347806603156
  N   3.89258325982772     -0.21865147613698      0.51658519175343
  H   1.78541534888090      0.79635734882727     -3.10323370958924
  H   2.92763192989479      2.08113360304390     -2.74798708376905
  H   0.18631111089205      1.90691947554654     -1.83286755815825
  H   1.53425440883769      4.42481913539342     -1.72732024185092
  H   2.02550888393423      3.20683818805196     -0.54806028215718
  H   -0.68495423630309      2.94468379932884     -0.34959084523014
  H   -0.58671207840777      4.65802733311638     -0.73582162882702
  H   -0.50543957525870      4.47110293236430      1.66652903989926
  H   1.14174763309314      4.84343694966286      1.16650734209745
  H   -1.50563917604454      2.87640882475786      2.26233676443656
  H   2.69932933576578      0.07047113501736      3.45235027627118
  H   4.85140912020108     -0.24702452130641      0.83285541866692
