24
Coordinates from ORCA-job 8198optt
  Br  1.08223180098607     -1.21932147206858     -1.18354852044799
  C   2.67238210106351     -0.46884161826427     -0.46048262531939
  C   2.96426106754553      0.86523388423334     -0.57082733783698
  C   2.21580537033545      1.73771521179448     -1.43420815956671
  N   2.01619413734671      3.01219200622379     -1.33962387489855
  C   2.36860243378555      3.71571945680339     -0.20717971253210
  C   3.17586991252370      3.42300166055762      0.83077773311103
  C   4.15949409086194      2.33927240155477      1.01024863934378
  O   4.97854945985582      2.40684346206196      1.90696518577647
  N   4.17151965087905      1.31390521199724      0.08301432562789
  C   5.17825460811774      0.31817625461636      0.17168369580286
  C   4.84632860111053     -1.00631766469565      0.24427740606068
  N   3.51447831836163     -1.38634813216688      0.07734436010506
  C   6.02835044014035     -1.81820732560990      0.28889749399378
  C   7.09965029277919     -0.96689900972292      0.23162777037938
  C   6.62106692745681      0.42057546914325      0.11672380396942
  N   7.31086332775489      1.51392088173381     -0.05041254591736
  H   1.73349268526136      1.25873420562572     -2.28409085429325
  H   1.85653011039412      4.67347395598308     -0.15410198213159
  H   3.23919390612366      4.15154135330550      1.62903551583398
  H   3.23001361992982     -2.34720716783836      0.14295645837229
  H   6.04881899871016     -2.89703619425386      0.35525282049955
  H   8.14561255662732     -1.23734215091642      0.26337912755778
  H   8.30243558204898      1.27221531990251     -0.06570872349003
