29
Coordinates from ORCA-job 8202optt
  Br  2.72312896264977     -0.95109753273050     -3.04124805397489
  C   2.98331530324221     -0.05889494595737     -1.37578244593239
  C   3.05384745846270      1.34372322099282     -1.33757610978625
  C   2.35646800532170      2.26541218066818     -2.29702266162503
  N   0.97807698802107      2.61709095790616     -1.88364457910672
  C   0.79365597969283      3.37603372867896     -0.64930005316090
  C   0.56494107401867      2.67349706387858      0.74530847654261
  C   0.65812084087839      1.15870535865725      0.79936743916065
  O   0.38143757204121      0.54502152366399      1.81563953137919
  N   1.24517737972994      3.36975380405876      1.83682575341725
  C   2.23335528380140      2.90654343603349      2.49121269913879
  N   3.03364208429402      1.79903507839748      2.30113501766358
  C   3.17356769772981      1.18563708023990      1.05251483008533
  N   3.24229775072818     -0.20807336923399      1.03069588689828
  C   3.15317200019375     -0.89775457349641     -0.23495322580190
  N   3.17610166492640     -2.19057328990494     -0.26030790774793
  C   3.28463895606984      1.92746713575877     -0.08489598114231
  H   2.28759574727177      1.83644923280804     -3.29565599906772
  H   2.90513619332712      3.20899018893986     -2.37300416280749
  H   0.38671172015642      1.79613530903319     -1.92335865224589
  H   -0.08016124203977      4.01589625827460     -0.79722750478029
  H   1.64010742842873      4.05420537057450     -0.55046246963726
  H   -0.49494214390653      2.84360794376819      0.97568250523992
  H   0.86962972913532      0.61791398906136     -0.13509962742973
  H   2.53798503449895      3.47745640377035      3.36981716284264
  H   3.69883145448537      1.58825293843047      3.03176065145749
  H   2.61022520419226     -0.62489590205132      1.71163757225116
  H   3.30100160774314     -2.54408508435113      0.68562274297898
  H   3.32793426490529      3.00254649413070      0.01831916519081
