23
Coordinates from ORCA-job 8203optt
  Br  1.88206524392642     -0.22575033440076     -0.44707116298538
  C   3.31804731389942      0.88161643488237      0.07545487936121
  C   3.17948763226262      2.13758885969476      0.50570749402156
  C   1.97085275121417      2.97569763244201      0.70646364588105
  N   1.63979864863618      3.82579089948483     -0.17911073261180
  C   1.37712795304171      5.07065005715615      0.43731450684437
  C   2.36953924789660      5.93904733083007      0.23203089723001
  C   2.88763479084255      6.74370737572901      1.36004658897381
  O   2.27947876660110      7.55874976374361      2.00222163074380
  O   4.17454648759194      6.45723204142085      1.66985519251660
  C   4.83847108616562      5.24457492960859      1.22751293609140
  N   6.05224148591353      5.38140904018666      0.81723745073322
  N   4.07071258341297      4.18009089767332      1.34216518719215
  C   4.35328178292328      2.95745212469839      0.81367313800994
  C   5.58680562146630      2.37372520800746      0.42625595716549
  C   5.63950727925743      1.09856739845952     -0.02223613958327
  O   4.51944286398821      0.26232092003961     -0.08345929631250
  H   1.69167267803644      3.11257080949060      1.75853539715310
  H   0.69679910803495      5.14088568790555      1.28430362473905
  H   3.08115399427306      5.68346607942886     -0.54369280474045
  H   6.29657141295454      6.36651889187749      0.81006690890400
  H   6.48910941941884      2.96877225285264      0.46334687369713
  H   6.52165184824198      0.58031569878829     -0.36062217302450
