22
Coordinates from ORCA-job 8204optt
  Br  1.78422058937325     -1.51436460220576      1.01045187735073
  C   3.58374941698363     -0.76231050662873      1.08152146874764
  C   3.78000683913610      0.50619674830289      0.60791520779758
  C   2.71252555614603      1.51134373869650      0.49646612881058
  N   2.54684377059505      2.13912269183529     -0.60473663516861
  C   2.34260575693266      3.49946652642171     -0.34182246084208
  C   3.42913076278121      4.22603438283592     -0.66026361875991
  C   4.01931164448889      4.81954285536124      0.55102983987464
  O   3.74140354092853      5.79183322363697      1.19019690209584
  S   5.15976367177779      3.55814795820028      1.31055911150931
  C   5.60305232111366      2.27201586640964      0.18020196432924
  C   6.75632637458630      2.57668552397106     -0.57764620074448
  C   7.72948726788010      2.89516850489247     -1.21949865614429
  C   5.07749967135910      0.95034499393987      0.15019495502098
  N   5.84448287467602      0.00063629718469     -0.50332190636829
  C   5.82686543432130     -1.22844266290491     -0.20461120659345
  S   4.92187336143348     -1.86866955256476      1.19927639065144
  H   2.27569721093037      1.87629625970707      1.43626224838172
  H   1.64201190124134      3.80695928530322      0.43553768984217
  H   4.13987590527404      3.73160760600569     -1.31359695557942
  H   8.58732371250385      3.16003351793620     -1.78596420264639
  H   6.32394241553723     -1.95864865633660     -0.83715194156493
