28
Coordinates from ORCA-job 8207optt
  Br  1.23312338401450      0.07408484895384     -0.48392080687595
  C   3.16102290592391      0.00840944082291     -0.24560646916100
  C   3.74959637611111     -1.19497564806508      0.02021974566660
  C   3.06045519768239     -2.48950910229177      0.31916330678213
  N   3.72360757408734     -3.66664971367164     -0.25778446297352
  C   5.12331858427838     -3.66222976174690      0.14116165652177
  C   5.85644499167859     -2.38132605118789     -0.23172658365246
  N   5.15778211380593     -1.20057266384097      0.25634252686020
  C   5.85707072817651      0.03171477446496      0.18147454949488
  N   7.14690068046976      0.15509652615792      0.33907698166417
  C   5.07827081460211      1.18678041851355     -0.08683807454522
  C   5.82867953320489      2.47850594682466     -0.16345162232580
  C   6.62385585947466      2.77957083239011      1.09298410233307
  O   6.16854849605607      2.74462104611139      2.20654218129108
  C   8.00491986824774      3.25412920118625      0.88917770095419
  C   9.10713419072247      3.69423664349113      0.71715872627951
  N   3.74985215199105      1.18561958226816     -0.32832116383416
  H   2.03079446697898     -2.45587560643412     -0.02435630034329
  H   3.04367376905649     -2.65592939826710      1.40586396027568
  H   3.67801179774615     -3.58186247647730     -1.27037555335955
  H   5.63500235903085     -4.51460379611372     -0.31148607069392
  H   5.15619014867797     -3.79107955830566      1.22742479651555
  H   5.95747524726984     -2.32677889252182     -1.32916358356649
  H   6.85805905417949     -2.41629587544081      0.19285851362558
  H   7.59747206512153     -0.71747767502689      0.58537497256056
  H   5.10400786054651      3.28756600778059     -0.28648825774805
  H   6.52206269626644      2.48932907156964     -1.01014066171383
  H   10.09066708459806      4.06950187885661      0.56983588996829
