25
Coordinates from ORCA-job 8211optt
  Br  1.28760078214818      0.32324161289033     -0.84136065145550
  C   2.97707282302855      0.00835695342020      0.12825032607265
  C   3.62044019282658     -1.21425192653300     -0.03385999024153
  C   3.09885198311510     -2.60782476847437     -0.16572004894867
  N   4.30559924976233     -3.46032248374887     -0.03210169297698
  C   5.49581764338330     -2.61740435255828      0.14427231800756
  C   6.60598183664236     -2.86292313568363     -0.88130520349518
  N   6.17654359694800     -2.68933705350884     -2.26068493665570
  N   5.42455198039173     -3.58069300227652     -2.87431852811382
  C   5.21078816048960     -3.05289924252058     -4.07560440914358
  C   5.87235332136931     -1.82579906748921     -4.13283655278356
  N   6.47748562488156     -1.62558997339643     -2.96756793144159
  C   4.98055473461991     -1.20485633882333      0.11421543628416
  N   5.78039494954057     -0.13893946225194      0.26275318681883
  C   5.18538271899782      1.06331734742196      0.25947378838441
  O   5.70288422376968      2.15119291992740      0.30570076751908
  O   3.74119124150971      1.11651010673465      0.22375443496622
  H   2.60627847353783     -2.77291004918309     -1.13033249175888
  H   2.36904930293297     -2.84228496059095      0.61575194311335
  H   4.40618008666990     -4.03130988339285     -0.85931589223702
  H   5.97188706970348     -2.80936447592304      1.11672201658451
  H   6.99437465592895     -3.87794113698076     -0.79072090173200
  H   7.39545537282324     -2.13302686971038     -0.71270580220370
  H   4.61533564991671     -3.56536748636535     -4.81125063231036
  H   5.94394432506220     -1.10157327098298     -4.92520855225262
