32
Coordinates from ORCA-job 8212optt
  Br  1.01736564119682     -0.03654149462398      0.09246670848673
  C   2.95205090398998     -0.02733662872558      0.01971558328841
  C   3.62483136068461     -1.20011344728119      0.30684587403227
  C   2.93804724303458     -2.49794126777376      0.67037572981791
  N   3.04573493943522     -3.56801628988371     -0.32947487238965
  C   4.30828166926607     -4.28743220930664     -0.32096789707234
  C   5.58275390008841     -3.46892271858693     -0.54032543061301
  N   5.81770355427058     -2.40243311103950      0.42298919836147
  C   5.04262314681267     -1.20800661889207      0.24235290007545
  C   5.69405606546514     -0.00702971660446     -0.06193368191777
  C   7.18207458468343      0.19701813322851     -0.18993718699722
  C   7.32058741311220      1.72733115724638     -0.14052550378173
  C   5.97236028123771      2.27723515375509     -0.64170810181147
  C   5.01034376638250      1.15634835538290     -0.32530821502902
  C   3.57846033872016      1.21295896155381     -0.34394440169437
  C   2.88038406359727      2.40315098812159     -0.70318365901918
  O   3.40874703334841      3.48680237094740     -1.04949839726337
  H   1.88439145888003     -2.32326824637453      0.86412275064061
  H   3.36957445855862     -2.89002984313043      1.59734308107912
  H   2.87519126492513     -3.16935784560019     -1.24678430124688
  H   4.25589501662078     -5.07903986812480     -1.07584940598084
  H   4.38707143548364     -4.78976762354467      0.65124968434545
  H   5.55997283350304     -3.00510339382399     -1.53027690680967
  H   6.43705841536446     -4.15803916163548     -0.52338284502611
  H   5.75918243509882     -2.76556735664209      1.36938287338306
  H   7.53447895994374     -0.20690053741890     -1.14670631519378
  H   7.74521139447756     -0.31665087990172      0.59049526067589
  H   8.17401047518910      2.09698907555127     -0.71263897236480
  H   7.46351379755819      2.03464077876649      0.89869445077164
  H   5.98570483785998      2.47380395642061     -1.71979126521016
  H   5.68695797117310      3.21804709014763     -0.17612278221757
  H   1.78437934003796      2.34117223779294     -0.67067395331909
