26
Coordinates from ORCA-job 8215optt
  Br  1.03722389622338     -0.10132098487168     -0.18754876921279
  C   2.95836353887324     -0.21275167954151     -0.05429713468325
  C   3.58224657069612     -1.42672001971714      0.20132123638686
  C   2.84643728601740     -2.70758277828513      0.49446306041325
  N   3.13607237993406     -3.79889694164218     -0.43578494215392
  C   4.35419145407685     -4.53967331694639     -0.19856441259270
  C   5.61718928417784     -3.72349124775011     -0.45239059317847
  N   5.74045427941810     -2.62165741806703      0.49901274926672
  C   4.99220680125539     -1.45140358127480      0.23136628201116
  C   5.65344823148392     -0.22480655961435      0.05552499687525
  N   6.94360250891814      0.12697670383360      0.05314578714238
  N   7.06708928993389      1.40909743696826     -0.15276258170373
  O   5.69092837482087      1.95028247504027     -0.30628976429832
  C   4.86856062117853      0.92207878816732     -0.16769341264328
  N   3.56319899540502      0.97532054840628     -0.24314436683235
  C   2.56373647584597     -3.75342741094223     -1.67606032459224
  N   2.85432260378770     -4.39355593965445     -2.74094638175910
  H   1.77295797710507     -2.53692376989850      0.49937217114010
  H   3.13668558833107     -3.06002932963540      1.48809122583224
  H   4.35157088689318     -5.43840910542158     -0.81816546836733
  H   4.35486887959819     -4.86027610792611      0.84628815719515
  H   5.61097864841168     -3.36546125613416     -1.49073705910720
  H   6.48220134422776     -4.37799307483434     -0.32033838844853
  H   6.71113474759366     -2.35125433977893      0.60034455328340
  H   1.71108541848658     -3.07291168185820     -1.70583188142637
  H   3.68924391730635     -4.96420940862147     -2.62737473854693
