22
Coordinates from ORCA-job 8220optt
  Br  1.40504362299707      0.28970589122771     -0.86222118718996
  C   3.09775502499708      0.02319006550965      0.02810848947746
  C   3.76024256900067     -1.21940785284168     -0.06544068518774
  C   3.34459386096831     -2.56581629707842     -0.13188038030840
  N   4.38159728798671     -3.40311487192719     -0.10619524738398
  C   5.49972645956530     -2.62217759196816     -0.02056222001809
  C   6.81300634737656     -3.16069147858825      0.02292610973752
  N   7.89734910361849     -3.55044979465478      0.06219835674161
  C   5.17589400183153     -1.26450642274373      0.00173777152299
  C   5.92149597818408     -0.04134496635219      0.03732563473899
  C   5.22066196032349      1.09788262196664     -0.02553283340672
  O   3.86776210027755      1.17552408387228     -0.06307812006076
  N   5.77348162324125      2.39188471893869     -0.06742601128548
  C   7.05916540024233      2.73095152454837     -0.41693099848611
  C   7.13366115080465      4.08408515792664     -0.26835946238276
  N   5.93169132254016      4.58971395730293      0.15815224277924
  C   5.14175640483200      3.55333930585083      0.26814183128429
  H   2.32978060012727     -2.92922520663849     -0.20502142524719
  H   6.99957783332572     -0.01908205435973      0.10510070389799
  H   7.76790072351840      1.99594975117998     -0.75269990457724
  H   7.98194379805402      4.72170248321846     -0.45502182671313
  H   4.10991282618721      3.55888697561046      0.57467916206747
