25
Coordinates from ORCA-job 8223optt
  Br  1.02520959955790      0.04684780603408     -0.11021987140157
  C   2.90055234140319     -0.01514270209452      0.09798216758303
  C   3.63773380722642     -1.14043265721433     -0.04418921928315
  C   3.24479711203944     -2.59068630197318     -0.11183507662301
  N   4.51193075521329     -3.32592336335622     -0.32563804757093
  C   5.58265157994747     -2.43906670646373      0.18775575961305
  C   6.83023359893234     -2.65104856287441     -0.56032339342918
  N   7.79632023685868     -2.80600090968286     -1.15952473106157
  C   5.03084363415521     -1.04239886426945      0.07401461817928
  C   5.60712445009607      0.18745968700449      0.40192675108285
  O   6.98766521288527      0.30469827404426      0.52106584895638
  C   7.63240130841279      0.65245132021025     -0.68709410531670
  C   9.10313603458028      0.38355581190352     -0.51255148679150
  O   9.97325316254253      0.94009245857604     -1.12627639267788
  C   4.82405380776969      1.37250982746357      0.46735025707735
  N   5.19004771588416      2.58482741360038      0.68141116268974
  O   3.44738071999689      1.23122649228942      0.24333645810639
  H   2.53684464641878     -2.82538601692484     -0.90803021570700
  H   2.79480758311723     -2.91421202245482      0.83253754714279
  H   4.65248859517081     -3.40584147773900     -1.32655955505350
  H   5.79866771707278     -2.70662966261878      1.23360130184629
  H   7.46111495557451      1.69929552806730     -0.95657406413126
  H   7.27557156947754      0.01771063165821     -1.50941940010830
  H   9.32911933329128     -0.39872151254269      0.23608460369364
  H   6.19205052237531      2.58381550935730      0.85316908318476
