23
Coordinates from ORCA-job 8224optt
  Br  1.37955681610681     -0.68918484124390     -0.02137345772909
  C   0.76875522373591      1.15189993131884     -0.03116381885996
  C   1.69593267064009      2.15012945325937      0.22314697593850
  C   2.93938267630561      1.91393748544042      0.94255359875857
  N   4.00596576115674      2.61565446332527      1.01385772247110
  C   4.13647674820279      3.77860205540646      0.25065964675717
  C   3.18449716405952      4.62667434758105     -0.15970148192358
  N   1.80590790430996      4.59911177561526      0.02325349059768
  C   1.15404917786886      3.49924271547253      0.13137154184871
  N   -0.26548919631826      3.60176345301218      0.22382706189575
  C   -0.72252518983983      4.83110885182683      0.69401643792601
  C   -1.91889614194797      5.43186747924848      0.71082628350184
  S   -3.47593170737745      5.01176891105783      0.09840391270744
  C   -3.32402340357702      3.38586135952929     -0.49296135997303
  N   -2.35193919467489      2.54022303337034     -0.51387851606692
  C   -1.06537114102481      2.50470754107937     -0.20290674541334
  N   -0.48296449186312      1.29577619469212     -0.33336414637024
  H   2.93767848145322      1.00742125449157      1.54796337030286
  H   5.16536958985054      4.04582739225918      0.03355092599022
  H   3.51904761401158      5.51976906897183     -0.67985063620939
  H   0.08805773428820      5.39811889517154      1.12305827617790
  H   -1.94539692429295      6.40029358784524      1.19236588556297
  H   -4.28114017107355      3.05642559126885     -0.88965496789119
