23
Coordinates from ORCA-job 8225optt
  Br  1.02315985173383      6.17753645933348      1.73208590296587
  C   2.57632994807231      5.56000039888163      0.78600266210329
  C   2.73389779993283      4.19507162438691      0.52459631296851
  C   2.06914738087899      3.16725984772575      1.31491432920202
  N   1.83996982130696      1.93440192295310      1.06208700298323
  C   2.15648993352723      1.40601156706515     -0.19568778806398
  C   3.15594998067112      1.74507738299920     -1.01644452096624
  N   4.13811871039306      2.72719206534920     -0.87594652995872
  C   3.89015894551720      3.82703422231359     -0.26838427331345
  N   4.92638437189343      4.83243141607489     -0.33040696584772
  C   6.21217697574399      4.41318440971672     -0.61513807673712
  N   7.33828017538415      5.03115969226570     -0.52404793811176
  C   7.48780205041571      6.36335502232416     -0.20993756229542
  C   6.58039402637359      7.34020594519461     -0.29812766527077
  O   5.28532608349807      7.14585947049001     -0.69806560852313
  C   4.52992718850677      6.15954951575898     -0.13900342197054
  N   3.38703157348950      6.51264955633441      0.37416760582989
  H   1.75251114549107      3.50530441976688      2.30238026219757
  H   1.53695876862302      0.56356681398713     -0.48606854100919
  H   3.27843619411447      1.15181045818622     -1.91806111334018
  H   6.22241881667056      3.37328659358194     -0.90590983948265
  H   8.49371165084973      6.65481549803258      0.07133473320260
  H   6.81341860691233      8.37923569727772     -0.11033896656209
