18
Coordinates from ORCA-job 8232optt
  Br  0.72261174761491      0.50099394689775     -0.39308320371041
  C   2.45485857250181     -0.25802422593278     -0.35495484727482
  C   3.36534393955593     -0.18405569210280     -1.41896145989680
  C   2.99560711462915      0.31507875151120     -2.73374213572315
  N   3.51450926167125      0.07154847493607     -3.88137857805605
  C   4.53615605625651     -0.86676413612391     -4.01821158403990
  C   5.51280300191806     -1.16561160293621     -3.14865716941237
  N   5.75381303049757     -0.62656058780689     -1.89593002818133
  C   4.79023368020471     -0.24730737478845     -1.14851030075973
  O   5.23778533919359      0.27381563524808      0.06461584426187
  C   4.51553126380503      0.28430279683775      1.20158898901062
  O   4.79642496823312      0.98171697791645      2.12452805244496
  S   3.06893533670324     -0.82194666731871      1.12758624699283
  O   3.64016463743240     -2.13792490181788      0.98347259616197
  O   2.20204925083650     -0.53286143708050      2.23167484514706
  H   2.16699082917704      1.02370147137102     -2.73212397930898
  H   4.57391667865902     -1.33640626847138     -4.99536852959772
  H   6.28026529111010     -1.85969516033883     -3.47654475805803
