24
Coordinates from ORCA-job 8235optt
  Br  1.25443313364464      0.21424466884355     -0.31439748249066
  C   3.19625078259395      0.08366525825211     -0.23712999014020
  C   3.77172792217359     -1.14742969049336     -0.07398317890210
  C   3.03282947679756     -2.43348680580225      0.18773807659257
  N   3.70509108795785     -3.58881205779467     -0.43084428182694
  C   3.00937683705968     -4.82705933284616     -0.25666805295902
  C   2.90032799818011     -5.30118666574751      1.15195975345923
  N   2.78392982825118     -5.66919639070231      2.23177674017283
  C   5.07976525518508     -3.62583789670607     -0.12663532664458
  C   5.78892146485159     -2.44365410856687      0.03875438408647
  O   7.10163394253157     -2.74578379860888      0.18897594939057
  N   7.26337972956655     -4.13848935049965      0.13500843858033
  C   6.04395695219561     -4.62599313242435     -0.05246881854344
  C   5.21517959563293     -1.17410687966094     -0.02022482789315
  C   5.88555811937051      0.07956462814172     -0.06179408565426
  C   5.14821633500553      1.22071683455919     -0.21330772327041
  N   3.79740634048188      1.26121743584272     -0.32797469688889
  H   2.01978962448890     -2.38393609134772     -0.20747502868812
  H   2.96690490570704     -2.59022623031906      1.27914136293669
  H   3.51353672571174     -5.61148478386442     -0.82534474896123
  H   1.99292649493691     -4.73219150165426     -0.64291742278268
  H   5.92941517674887     -5.69805261611323     -0.12394913039635
  H   6.96392582735248      0.12503277975740      0.01174653300669
  H   5.64351644357416      2.18548572775508     -0.25698644218336
