28
Coordinates from ORCA-job 8241optt
  Br  2.10096551846756      0.35181977734125      2.25712428664308
  C   3.75684057933135     -0.20337411545384      1.45414705566540
  C   3.82504349755404     -1.37096880593062      0.72177410968995
  C   2.64019985729128     -2.26900374226535      0.45427611883441
  N   2.84104839996655     -3.21838695633218     -0.62979646648359
  C   4.11072679179593     -3.90877157533325     -0.51108716836645
  C   5.35294670411195     -3.00698314508417     -0.45746851124512
  N   6.01804859955301     -2.80511856221582     -1.78615062312621
  C   7.46030387798530     -2.62059838870628     -1.73250703847136
  C   8.18756806692839     -3.87251423548314     -1.48963956065486
  C   8.79066279808872     -4.88595337784225     -1.27603728788725
  C   5.37451017279963     -2.60926597947065     -2.94700928004255
  O   4.17366551890285     -2.65381967632719     -3.14381483833391
  C   5.08534025645138     -1.71582881216237      0.23917403879628
  N   6.20241827647426     -0.91036003067596      0.48115471697646
  C   5.96579597469236      0.17099767678998      1.20506810829048
  N   4.82860528006988      0.60140353657161      1.72910382494273
  H   1.76450355290346     -1.66080970467521      0.22506024070745
  H   2.39841721250835     -2.82191529889408      1.37022461617448
  H   2.84685060396715     -2.72956773964738     -1.51881791701258
  H   4.20805884634142     -4.62701374165698     -1.32633009421131
  H   4.09123280841195     -4.47356733191987      0.42677576413031
  H   6.12682435092627     -3.55197140510031      0.10173733841684
  H   7.67495728620527     -1.90647418255786     -0.93211087148426
  H   7.80145045823226     -2.18907205168102     -2.67486470695694
  H   9.31913767638638     -5.78599120526134     -1.07607119646465
  H   6.07317887482191     -2.39940850644308     -3.77719749270774
  H   6.83169815883095      0.80051758041744      1.41028283418093
