27
Coordinates from ORCA-job 8242optt
  Br  1.24427393106803      0.57807743302445     -0.87525807294026
  C   2.82374615008016     -0.12337721538965      0.40412855606606
  C   3.57812623003943     -1.15483674283881     -0.13289655006633
  C   3.01752392627462     -2.32630496838256     -0.88636100833557
  N   3.88578717043441     -3.50623796531201     -0.86437915790708
  C   5.11532940269197     -3.34922011049657     -0.60486226122633
  C   6.04171301596048     -4.55396921930365     -0.58257297510844
  N   5.50900251326801     -5.73931747310115     -1.22258032590697
  C   5.46349219948047     -5.58308817802668     -2.67482676901256
  C   4.83663726335402     -6.73816195312409     -3.31591409162011
  C   4.30766486402180     -7.67569199349439     -3.84137714553069
  N   5.72144858398405     -2.15005358202630     -0.29562396664542
  C   4.94584066665722     -1.05037366980620      0.07636341650986
  N   5.59179913743825     -0.03338693042030      0.61370318714298
  C   4.83783115968900      1.02955642077673      1.01003639972113
  N   5.25735957929100      2.15170522879970      1.44157917126852
  O   3.44451194703046      0.89705462333810      1.00998626410629
  H   2.83693579257332     -2.06308090455500     -1.93729112282699
  H   2.04346935880781     -2.60720470083000     -0.48331386146524
  H   6.26752767221985     -4.78347635880854      0.46287828745991
  H   6.99121918546880     -4.28853574057103     -1.05838776705422
  H   4.55056425230453     -5.84858170447866     -0.90082572304176
  H   6.48998880936861     -5.49299084247373     -3.04108056948343
  H   4.91925240487391     -4.68005837539810     -2.97994892181422
  H   3.83193847724445     -8.50392387298089     -4.30753528076356
  H   6.68139447374057     -2.12918023608100      0.01403760337139
  H   6.27262183263460      2.11565903196042      1.42132268510310
