28
Coordinates from ORCA-job 8245optt
  Br  1.17855539940866      0.26033361574220     -0.40292486054843
  C   3.13550846403789      0.20027516898949     -0.18941312740992
  C   3.71566882299126     -1.06868281728628     -0.14263425084269
  C   2.95648373435661     -2.35383842423279      0.07223957920235
  N   3.75147093496288     -3.56960697042402     -0.11844087128559
  C   5.05338380637912     -3.47882124279296      0.52525312032021
  C   5.91094380790197     -2.32833757103397     -0.00363406473262
  N   6.34956815212127     -2.69229529661703     -1.37369544507171
  C   7.27170450537822     -1.72398516911704     -1.94088203110333
  C   7.77250042096816     -2.19291067135933     -3.23892265648749
  N   8.16080590950635     -2.55128839426399     -4.25625597497692
  C   5.14574856001092     -1.03155880247853      0.06004277782554
  C   5.77672004844160      0.17415452378814      0.20063450052797
  C   5.05872604787871      1.39081899700904      0.12027291285556
  N   3.68149858280661      1.36248574279530     -0.11088162785829
  C   5.70049413606673      2.62957551382689      0.27538141316423
  C   6.28579357726109      3.68462044186778      0.40924575791176
  H   2.08247296533937     -2.40981972056058     -0.57563385464869
  H   2.57361509943152     -2.39545735177275      1.10379962182178
  H   3.86459560415381     -3.76063467171656     -1.10743760276079
  H   5.58572529824619     -4.42246189604856      0.39294300680429
  H   4.88159101598490     -3.32372508639663      1.59444838453985
  H   6.82451708623904     -2.25087032409281      0.59514854264946
  H   5.52694642641560     -2.72302026155189     -1.96984407889262
  H   8.13013352980110     -1.62257369194312     -1.27196876533926
  H   6.84845068542962     -0.72017631028390     -2.07282729341512
  H   6.84937115000209      0.21378902549467      0.36738648074745
  H   6.78500622847860      4.61401164445925      0.52660040700303
