29
Coordinates from ORCA-job 8248opt
  Br  2.94666549036649      1.15101323644457     -3.62689803752991
  C   2.92836805377535      0.82405636840755     -1.72748206749282
  C   3.72188184421934      1.59239922499936     -0.90483965577657
  C   3.81413996205076      3.09429801769213     -0.93214949804280
  N   2.82823830149781      3.70169849601195     -0.00915263248571
  C   1.42209643150137      3.41133985093447     -0.31473000071095
  C   0.57708063867572      3.41523440755520      0.96336393297564
  N   -0.84968677792262      3.11757723128970      0.75408037265266
  C   -1.29345442325881      1.76118542679136      1.07665373971143
  C   -0.58475169273490      0.73948724443691      0.18423994861406
  O   -0.85431350131178      0.68255771520025     -0.99849279039936
  N   0.43879458446867      0.03525547857136      0.77184226816911
  C   1.74227715624283      0.07867684938450      0.17540251731981
  C   1.97222498640031     -0.04041881253316     -1.20741229243548
  C   2.69470730678515      0.68398322299541      1.02353483912701
  O   2.57717375876016      0.88350808438269      2.23442358029584
  O   3.85896628316661      1.10480935117003      0.39966203283307
  H   3.63435508084114      3.46028986685851     -1.94392385416562
  H   4.79658204585139      3.44648808496525     -0.60990219385735
  H   3.03672119838503      3.33583707319795      0.91646351459591
  H   1.29233111015894      2.45334591467436     -0.82606994979412
  H   1.04281760815869      4.18549990863387     -0.99363043132356
  H   0.66850987565871      4.39854833668739      1.43530755668767
  H   0.99368036678363      2.68711078133978      1.66619055789733
  H   -1.10072593344816      3.30753144902951     -0.21018009753240
  H   -1.10539896755300      1.57307019857404      2.13580400357692
  H   -2.36737374749143      1.70564047569611      0.89446899998952
  H   0.54555907761933      0.21559035986765      1.76383623316319
  H   1.31553388235311     -0.61361384325893     -1.84341059606257
