29
Coordinates from ORCA-job 8250opt
  Br  0.63133854682497     -0.22775548652847     -1.35578446032061
  C   2.88944788781392     -0.02227746119415     -0.03512308887731
  C   3.61783408511904     -1.18522314328472      0.05116370757874
  C   3.12903532089653     -2.60572705621983     -0.00127067116580
  N   4.32750701664165     -3.39059851379255      0.36980745879111
  C   5.52906493450487     -2.58803803279611      0.13634580124178
  C   6.21527024958481     -2.87341010992520     -1.20236497155037
  N   6.71038336114271     -4.24029240714575     -1.25522734168892
  C   6.91022886725320     -4.91920469466186     -2.41893215665529
  N   7.56976611576138     -5.98980163810740     -2.62013810614505
  C   5.01549312673862     -1.17341114975618      0.15656822507240
  C   5.75240278063152     -0.00028194925553      0.17962451265261
  C   4.99736629065775      1.16058135954146      0.08376586253726
  C   3.59929787950064      1.17449614576123     -0.03233106108284
  C   3.24536026475630      2.57106973461399     -0.13388549101064
  C   4.40031717010797      3.25628001202956     -0.06711492686787
  O   5.48846376067180      2.43423874390648      0.06970071188557
  H   2.74912753913734     -2.83117970337419     -1.00468008646364
  H   2.31413593513160     -2.78476687019345      0.70085305411693
  H   4.37778785924735     -4.27561033576103     -0.11806838477174
  H   6.26444101392032     -2.76629936569215      0.93427284847244
  H   7.02330632042138     -2.14819488941159     -1.35145013704828
  H   5.48928832427821     -2.73614799404457     -2.00710691453911
  H   7.23445236290017     -4.55579261123154     -0.45107900775870
  H   6.39704537730035     -4.46071253508937     -3.26514848478793
  H   8.00891761262323     -6.31900984303501     -1.75902955349422
  H   6.83202932500279      0.02249700602021      0.25914473420985
  H   2.25265739890334      2.97003173809290     -0.25779973582488
  H   4.62623327252556      4.30854105053501     -0.10571233650540
