28
Coordinates from ORCA-job 8251optt
  Br  1.23409855266614     -0.43750007410223     -0.97673437790389
  C   2.92695356725423     -0.10550961704366     -0.11336750517852
  C   3.64111689858205     -1.21181356331651      0.39407160015491
  C   2.94612871883456     -2.49852000766942      0.75215950915847
  N   3.06994673053934     -3.64478184414001     -0.16881309025732
  C   4.39307934157586     -4.24812056277226     -0.23402126759658
  C   5.55759080079366     -3.28662440494628     -0.48546395823112
  N   5.76232772823784     -2.36447754187358      0.61414801139876
  C   6.55867456040048     -2.67923245445537      1.67734047794900
  N   7.25236437992606     -3.73207826037605      1.89018036661840
  C   5.04742570381963     -1.12642153946912      0.56433863130162
  C   5.74783241080335      0.03670984167407      0.58059134145147
  S   4.92756768917106      1.57602164166967      0.62727740225196
  C   3.38926205777554      1.22134272265763     -0.25767285712957
  N   2.78510338481339      2.18344111570709     -0.87765212478092
  C   3.22592315037883     -3.02446466920893      2.15034513165336
  O   3.71259914142422     -2.41849160009151      3.06166770354295
  H   1.87186179105245     -2.28467578703215      0.79562688578812
  H   2.77927418526572     -3.32793222434142     -1.08750199530552
  H   4.37624534735898     -5.01002508737823     -1.01718068960523
  H   4.58437490578842     -4.76643272253881      0.71240554677323
  H   5.36353107293430     -2.69356912877184     -1.38117716149727
  H   6.47821711575520     -3.85235878764645     -0.65631310780909
  H   6.55864989975491     -1.88940004132918      2.42529097988325
  H   7.16299128550085     -4.40755729803147      1.13387584910094
  H   6.82779557547542      0.05481788207874      0.53077710987205
  H   3.33895768647025      3.03441648815550     -0.83493606431994
  H   2.87310631764721     -4.06876247540818      2.28873765271649
