26
Coordinates from ORCA-job 8252optt
  Br  2.23755533256732     -1.58305262456788      0.93889720896731
  C   2.70299535342833      0.06761174809992     -0.05844250765076
  C   2.37075780681941      1.30913081049203      0.49639611345560
  C   1.12332075484243      1.48104713542244      1.31742204257983
  N   -0.10082362946840      1.20155672382093      0.56724840001620
  C   -0.71341687582858      2.33374976119526     -0.10628411351544
  C   0.29162585536482      3.14609292824763     -0.93361522414775
  N   0.74677403126248      4.31568572410561     -0.19968746807105
  C   1.89909496405208      4.46585103238320      0.30905347074659
  N   3.01174770185424      3.68294871701421      0.46440791878939
  C   3.26761716527700      2.31594462723720      0.17795584822767
  N   4.48452717815474      2.13859528989095     -0.33935660946649
  C   4.85294017011398      0.87793563783947     -0.66545437853371
  N   6.01374516031552      0.45288171402009     -0.97478124611859
  O   3.84075132412616     -0.08879451628930     -0.76245288278972
  C   2.12163002779656      5.79328422626833      0.90367541644400
  N   2.31505783392577      6.83041444003864      1.35285378200644
  H   1.11368292395353      2.47849830189820      1.77427474781895
  H   1.16457225905445      0.76292261357410      2.13920451964874
  H   -0.77652378845718      0.73463918558269      1.15555486982007
  H   -1.48546216635012      1.94085106305049     -0.77217083646119
  H   -1.19683873894810      3.04139236467720      0.58426313765265
  H   -0.23505411720686      3.54580583203151     -1.80201507183031
  H   1.08916284511603      2.49623286645959     -1.29539108830017
  H   3.87782892067562      4.18940849301131      0.58887017593063
  H   6.64673170755871      1.24536590449612     -0.91042622521888
