26
Coordinates from ORCA-job 8253opt
  Br  4.70075225855626     -0.66384431741196      3.00583244983148
  C   3.76259108179258     -0.58023102103109      1.32611685942337
  C   2.44361875463729     -1.06723316654153      1.18319844573418
  C   1.66559187710756     -1.45512954043725      2.27898279411338
  N   0.35325282977892     -1.62476612881844      2.43584221105908
  C   -0.59142777106262     -2.10568577102096      1.64989099907793
  C   -0.55345492179815     -3.09434608481352      0.69383216686225
  N   0.66868870711887     -3.73140115839512      0.33115842542440
  C   1.44893184730076     -3.30513680083241     -0.71940908742366
  N   2.19140498296258     -4.06025145780178     -1.44202426448413
  C   1.45920605408752     -1.85317825207543     -1.01311476441548
  C   1.94699835408064     -0.89468739788931     -0.21624789626684
  C   2.23282407002837      0.43566629884495     -0.77148128307560
  C   3.36878608656238      1.04849397088935     -0.40084939698563
  N   4.17842463483746      0.51167541871065      0.56935645606719
  C   -1.73268999082048     -3.53941735991849      0.05316098826903
  C   -2.72109104727840     -3.96636169760380     -0.50010757188723
  H   2.19410582552170     -1.41126400354078      3.22747598965688
  H   -1.59389455279671     -1.73234066755341      1.86367233298203
  H   0.68202654995678     -4.73448245670596      0.45995674469026
  H   2.07619030233716     -5.03710006551286     -1.16772572210310
  H   1.21871252750816     -1.59950036418788     -2.03932309378574
  H   1.61124349134570      0.85418717369136     -1.55081185312568
  H   3.72798304432468      1.96269508084172     -0.85573356133365
  H   5.14908909458498      0.77021286291930      0.60196383606502
  H   -3.59186409067414     -4.31057309380518     -1.00061220436980
