28
Coordinates from ORCA-job 8256optt
  Br  1.60102332876322      0.21127490762057     -2.67275454698350
  C   2.45710576373360      0.71057336723010     -1.00826438917352
  C   3.41905700064787      1.80469516435461     -1.14971244066731
  C   3.06367268570497      3.18826024436912     -1.72032774534087
  N   2.26389434066472      4.03118749026935     -0.86402250109205
  C   0.83309324249410      3.71199119295404     -0.80883580689314
  C   0.32483757171185      3.96237298733900      0.61888321427153
  N   1.11576274153324      3.16942368409980      1.52875714463937
  C   0.75532102940606      1.89378639703517      1.63446090729111
  N   1.74073343900496      1.03427568278454      2.24736179847562
  C   2.61121538065355      0.34982092087490      1.45602077259476
  N   3.74222662755654     -0.07022461207588      1.88850606368172
  C   4.66074171763408      1.58754027637668     -0.78023373295082
  O   5.77335777869134      1.43189749115236     -0.49708576910017
  C   2.07969216922387      0.05865249449693      0.08414517566263
  C   -0.38747994260948      1.27579086870007      1.15511896929928
  C   -1.46501608603004      0.77856047925594      0.79445585845061
  H   2.53664367187886      3.02947615760620     -2.66511685435379
  H   4.00121866337377      3.69613239208312     -1.95908948125322
  H   2.60576775986350      3.94197012916593      0.09098598631952
  H   0.63292187755910      2.65996954874184     -1.04697513531915
  H   0.28997736734712      4.32724590047043     -1.53476080774332
  H   0.46034233750141      5.02208970568788      0.85853068643181
  H   -0.74924773738495      3.73845547076308      0.65079338748010
  H   2.16278689725182      1.39355817736214      3.09460369746952
  H   4.21255751688994     -0.60885883975740      1.16762635817903
  H   1.32392632639547     -0.71362405007541      0.01751714551051
  H   -1.96013346946064      0.26370637111469     -0.00758795488623
