26
Coordinates from ORCA-job 8260optt
  Br  3.17518838171727      0.01103376634033      3.51179569338119
  C   5.00181878786032     -0.05127932940448      2.87404739421234
  C   6.06640200788998      0.66924748929922      3.53589617175167
  C   7.03718769522876      1.14611844502345      2.49400209592187
  N   7.60641549814343     -0.02970242213994      1.75153067209162
  C   6.80231044931060     -1.13602181064881      1.75488058545473
  C   7.34493024526667     -2.35149774616874      2.24556495004834
  N   8.58933026724443     -2.38427573638012      2.64379833562094
  C   8.84107431039490     -3.16414043182993      3.77889722228119
  N   8.61314719652174     -4.39833432892267      3.90102374450620
  N   9.34319884767834     -2.31589029670191      4.84803077436569
  C   8.23782690260349     -1.65223527481806      5.53129904480367
  N   7.65203747031073     -2.31460819667389      6.44794289097213
  C   7.87668928152328     -0.36824470533732      4.92599076524108
  C   6.57019208535911     -0.07941483276744      4.63307679093455
  C   5.36343962802939     -0.89711292093690      1.88619451549362
  Br  4.17832281097973     -1.94162796245291      0.82813748006928
  H   6.54410489494269      1.79959451374152      1.77401992888999
  H   7.88049395889961      1.68739193089915      2.92380818557411
  H   8.53617542633412     -0.30179965205635      2.05736243304595
  H   6.64864050197729     -3.15586467993003      2.48756055145080
  H   8.84809190185069     -4.67471638413565      4.85273953832191
  H   9.87043413741859     -1.58986723321431      4.37466670647507
  H   6.88526274600184     -1.75878212501743      6.82362847880547
  H   8.64989393708841      0.09041959707353      4.32030780073343
  H   5.82039062942448     -0.66838967284029      5.16179724955310
