26
Coordinates from ORCA-job 8264optt
  Br  1.09986845740151     -0.03886658702836      0.16177676186154
  C   2.99199934812172     -0.07068265301149     -0.01066579102179
  C   3.69076866667843     -1.30432947840699     -0.05440241542655
  C   3.39090679050028     -2.67677537042171     -0.00654616628119
  N   4.50436803304425     -3.42873703938381     -0.06313734254007
  C   5.55617328872534     -2.56255894981936     -0.16215242774421
  C   6.96368105785477     -3.03546266435960     -0.16689615898244
  N   7.55080883313062     -3.10643286928673      1.18435433764066
  C   8.10443484762582     -2.04207022470696      1.78103139102346
  O   8.37598190354792     -0.98114075531648      1.24415520450845
  C   5.10986236605114     -1.25365974135059     -0.14843564084544
  N   5.80458082035062     -0.04316518790800     -0.19598142790531
  C   5.08642948080784      1.13266944034502     -0.07114509035501
  C   5.89172168828107      2.39497680890492     -0.05740978104523
  C   6.42798703486003      2.78616661547494     -1.37330327132393
  N   6.83231926401754      3.12106241899696     -2.39334175923773
  C   3.70794114822420      1.12543491018859     -0.00929641182703
  H   2.40866258876024     -3.12311428396784      0.06016563402757
  H   7.61174307569782     -2.37630728698034     -0.74521302884415
  H   7.01436597548714     -4.03815368840324     -0.59110927989976
  H   7.18174678967729     -3.82331250687388      1.78978751714721
  H   8.33040546893224     -2.21766821156766      2.84641611458156
  H   6.77394573758894     -0.05934382955803      0.10226678425920
  H   6.74586856738141      2.30610327902885      0.62487882387663
  H   5.27384474212495      3.22029840120034      0.29733886462924
  H   3.18758402512675      2.07306945421148      0.04186455972432
