23
Coordinates from ORCA-job 8265optt
  Br  2.09514957010884     -1.08449233218242      2.44414633888353
  C   2.83479472031634     -0.24026196782298      0.91211492080776
  C   2.63845403402267      1.12463014265412      0.72178075285138
  C   2.22033094215029      2.00942064320343      1.82114251926564
  N   1.66556653065799      3.15393618698095      1.81923350579293
  C   1.25538420899956      3.85619961409569      0.68501823651925
  C   1.88615315010863      3.85897911695492     -0.50854776467818
  N   1.53554475325942      4.78594227651834     -1.52753608855478
  C   0.59143879823352      5.75464004992012     -1.56098202508341
  O   -0.19786340429994      6.04887375475135     -0.69317258715436
  C   2.94608341063007      2.97849621675781     -0.93743953440201
  C   3.16730867224262      1.71707979424799     -0.45366006656780
  O   4.01669940840404      0.97590169390366     -1.23141555712392
  C   4.23956925069591     -0.36093819218984     -1.07924345982543
  O   4.99347547075800     -0.88346808085004     -1.85891618139065
  C   3.54603314395123     -1.07731765854660      0.02423487938271
  N   3.66627691601120     -2.37551030161155      0.13513346190171
  H   2.47255668978103      1.61971563162944      2.80663844048948
  H   0.44663897342478      4.54833465783458      0.85659260141419
  H   2.05367220273914      4.67253518479007     -2.38386131101098
  H   0.61428906196657      6.28845335344792     -2.52792776054699
  H   3.51094797235828      3.24884281170803     -1.82149781953404
  H   4.26849552347977     -2.69399259619503     -0.62283550143602
