27
Coordinates from ORCA-job 8266optt
  Br  1.12421482584757      0.11825258314771     -0.36852721734897
  C   3.01842977940638      0.05496275229986     -0.17725706624989
  C   3.70423958257299     -1.19255318056479     -0.16015366935109
  C   2.93917010791659     -2.49207613142391     -0.16355291816702
  N   3.75121315972950     -3.68893880847908     -0.38588253719066
  C   4.97503482178103     -3.64798081884654      0.38031348767594
  C   5.88461446429027     -2.47222012199979     -0.04947543512045
  N   7.08823291247820     -2.41952467580928      0.80048144668895
  C   7.09209995423858     -2.22181164101968      2.14022544350119
  O   6.14844111959927     -2.29737462263304      2.89010276046827
  C   6.37437697095082     -2.74284938889072     -1.41381718641304
  C   6.75497334548581     -3.00960118697549     -2.52047316599642
  C   5.09386426909240     -1.17038494119655     -0.03468240595673
  C   5.77813416842011      0.02648309420140      0.04522998240852
  N   5.06454291900764      1.21982083497488     -0.04580291404246
  C   3.66646748219812      1.31235796035517     -0.12176388978396
  O   3.16133627047143      2.44028566989646     -0.13531884689490
  H   2.15770690159895     -2.46896741247177     -0.92436218514241
  H   2.41767378447658     -2.61164967602508      0.79608149275530
  H   3.98521106919145     -3.74974067083169     -1.37189613832814
  H   5.53012651714052     -4.58085660006376      0.25966127359141
  H   4.73322961587666     -3.51278826077233      1.43426167256272
  H   7.95155594145126     -2.21557765078093      0.32359719049431
  H   8.11242142094378     -2.00638699070577      2.50851951072306
  H   7.07771066818169     -3.21087623008054     -3.51283447254684
  H   6.85181464445554      0.10448111538651      0.11779885277948
  H   5.51216328319671      2.10151499930879      0.13752693488384
