23
Coordinates from ORCA-job 8269optt
  Br  1.30791876743937      0.15164501745695      0.17796324963758
  C   3.17719688933641     -0.07474220222592      0.07532965223459
  C   3.78868930646117     -1.32061056787170      0.04976717482448
  C   3.11900902204838     -2.56252944013221      0.04782788030851
  N   3.72335970501335     -3.74655706749414      0.03833579120121
  C   5.05633755432851     -3.76252143551893      0.05309712196562
  C   5.82693172927956     -2.60264892929237      0.04822307039655
  N   7.23647273792477     -2.63543436865408      0.16015468242518
  C   8.07849271030413     -3.63456105639491     -0.14036823320794
  O   7.82918981195269     -4.72731068138977     -0.60188531832505
  C   9.49000332019483     -3.27121724952757      0.16909354115036
  N   10.58701965851811     -3.02273679796376      0.39218156030165
  C   5.23648189178111     -1.31655494000329      0.00921717529288
  C   5.94028999204353     -0.11225497592794     -0.04792139514302
  C   5.28456190833324      1.15719498581190     -0.02849609278581
  N   5.78569018428487      2.34879000785018     -0.10032173009904
  N   3.89476756482431      1.09770991659945      0.08160961696076
  H   2.03507532409327     -2.57373596737850      0.05272316470701
  H   5.54216808615546     -4.72830174025867      0.06177149838534
  H   7.65285804850268     -1.80054926733622      0.55034645726191
  H   7.01076040320687     -0.08285129262645     -0.19935885134801
  H   6.79664640539465      2.28471487274116     -0.16659097402695
  H   3.42107897857864      1.98606317953682      0.04930095788218
