25
Coordinates from ORCA-job 8272optt
  Br  0.76994174676457     -0.64582878677998     -0.22667010371925
  C   3.07203992011421      0.26638666771642      0.11250837399421
  C   3.23513061887671      1.27469605047467      0.99579451247745
  C   2.10127943869461      1.80172431058246      1.83743037228133
  N   1.13120314348730      2.56238364511563      1.00913938758446
  C   1.68840132689830      3.40271984121673     -0.05194460791502
  C   1.69025748478231      2.71592874194328     -1.44909683068456
  N   2.48926183393716      3.39473683095517     -2.45887843975032
  C   3.51080600259261      2.92698544871466     -3.00136202208142
  O   4.21853148259367      1.74754077009735     -2.74094247582922
  C   4.33197176242607      1.43271919868795     -1.42243566545086
  O   3.73080896810358      0.27988455843581     -1.09241185501916
  C   4.86540088527193      2.25646216062882     -0.51399801564684
  C   4.42181407652694      2.13202562077000      0.87218725395803
  O   4.87814059997797      2.81117048585770      1.78419356260122
  C   0.92163834459483      4.66474296458174     -0.14009531778081
  N   0.31767589867918      5.63540162383805     -0.22705394196311
  H   2.50444000634542      2.46244124270377      2.60436853831530
  H   1.53476327985337      1.00416514644888      2.31316118911098
  H   0.49463405427292      1.88989160565059      0.58992302190095
  H   2.70688955269844      3.69320358885456      0.21026265067393
  H   0.66083598601777      2.73540381492119     -1.81478029390417
  H   1.94002310597328      1.66933725460427     -1.31782851897622
  H   3.98688648372946      3.44019070472754     -3.83122328567663
  H   5.37822399678734      3.15668650925268     -0.82224748850028
