30
Coordinates from ORCA-job 8275optt
  Br  2.07501688210996     -2.02317767891043     -1.39348979057086
  C   2.76373060010091     -0.43019350825492     -0.56358206635219
  C   2.67481277338837      0.76058382888743     -1.27793962402687
  C   1.61065224457449      1.15501650773467     -2.24840652630138
  N   0.32012151264524      1.66487468256112     -1.66326204191969
  C   0.69594242859082      2.59556259656809     -0.61622179158475
  C   -0.39593596707687      3.40461198799938      0.04992912612395
  N   0.12193104777603      4.11947859477692      1.24292866341934
  C   1.37738282411432      3.91878174848970      1.83092258044504
  O   1.48199219036810      3.69590519792479      3.02308670651829
  N   2.47484123102972      4.09812639822437      1.02081590012083
  C   3.67444884541914      3.27373301464080      1.19845916093531
  C   3.54738785702069      1.88899116687510      0.62104005858307
  O   3.39156615149368      1.87549142135263     -0.74230772523090
  C   3.54652002269611      0.76200600581152      1.33396868438710
  C   3.35902876067010     -0.56325334158393      0.70669059207963
  N   3.66142430933483     -1.70185893521489      1.30199798723329
  H   1.36409922209478      0.30706919126345     -2.88433150396937
  H   1.98705548493608      1.96261331093514     -2.88440704857716
  H   -0.14152244128696      0.86443533182218     -1.23711301545133
  H   1.39830758009696      3.27418985109470     -1.09805822977388
  H   1.23197720539662      2.07525447777351      0.18156062708629
  H   -1.19042561830823      2.72853001321062      0.37906390796697
  H   -0.83816733996422      4.11659456604554     -0.64992993283045
  H   -0.55198168483183      4.13420837108351      1.99388740624766
  H   2.26925514368074      4.32406484635450      0.06417275538328
  H   3.87761253337930      3.20459329088878      2.26452554929476
  H   4.50046016595957      3.80278346737129      0.71691901072042
  H   3.65459369051222      0.82062608130568      2.41088587574284
  H   4.03687234407931     -1.49464248703131      2.22519470430077
