21
Coordinates from ORCA-job 8277optt
  Br  3.18012505765651     -0.19078553653816     -3.13119297037083
  C   2.94313398680174      0.49258628749034     -1.37406120708934
  C   3.74513368179514      1.64983772132098     -1.00587761501744
  C   3.28927229862984      2.89593088443082     -1.44632570434938
  N   2.16718739894384      3.02038313544894     -2.15795806361183
  C   1.30406545999681      3.62850222068728     -1.28119210479249
  C   0.30198774927890      2.87919344825981     -0.73542475542784
  N   -0.17025878114566      3.19913451131184      0.50310786190508
  C   -0.35270508561054      2.29547404828762      1.39443843868147
  S   0.05796310410906      0.52559052594961      1.33453611154484
  C   1.69226608555982      0.49755316101780      0.68336429210374
  S   2.99214373138449      1.16559057069800      1.61383991132140
  C   4.22143742345272      1.76787753678931      0.36007570687049
  O   5.16839104964537      2.36233705142649      0.79912027381655
  C   1.92563472177080      0.00655802027097     -0.61899011921858
  C   -0.85955972874815      2.69354378121269      2.68011357103864
  N   -1.29195167457556      2.96357831222951      3.71094663068621
  H   3.69675870165425      3.75703089000376     -0.89425488333272
  H   1.57253441974682      4.56393598969757     -0.77361969013760
  H   0.14589764340544      1.88064328261026     -1.12668346987682
  H   1.21054275624833     -0.68449584260547     -1.05196221474354
