26
Coordinates from ORCA-job 8278optt
  Br  1.06681838268840      1.78321452599636     -0.35946908223065
  C   2.73568991791597      0.78772902110161     -0.21447215430526
  C   2.77720545452745     -0.52289044614369     -0.62291469901634
  C   1.58333624086200     -1.31714905981746     -1.06901290380324
  N   1.11464167941236     -2.28404049364603     -0.05739104279902
  C   1.88960975663192     -3.51511884861968      0.04114216382458
  C   3.32662031830017     -3.20388660245351      0.42149745185770
  N   3.81511705483593     -3.30062766980194      1.58676312495270
  N   4.10832193355458     -2.65807762557546     -0.62709244065248
  C   4.06062236135857     -1.20521055380016     -0.62055601006206
  C   5.07819195673306     -0.46612109235060      0.02044088644316
  N   6.41394260369887     -0.75599116232287      0.29273549485124
  C   7.03956174787971      0.32342809574991      0.87442851480941
  O   8.18723866905692      0.39079542075947      1.29833185932422
  N   6.08268002141819      1.31404699055626      0.88122335426070
  C   4.86613741474118      0.83437562398340      0.39185118513148
  N   3.72966907699052      1.55364811794698      0.26291946592373
  H   0.75185589905398     -0.64888635119921     -1.27469857571303
  H   1.83152139577530     -1.83694619164201     -2.01165740585559
  H   0.15016583905734     -2.52048556881853     -0.25225024185056
  H   1.43353956342676     -4.15311310135651      0.80036921049654
  H   1.90828005029444     -4.07871032530408     -0.91041487859617
  H   3.09241847518639     -3.58989101915469      2.24391891991877
  H   3.78879793290788     -3.00408274473318     -1.52262122501117
  H   6.81082456763021     -1.67882991847960      0.30143246554122
  H   6.24019168606180      2.21982097912527      1.28349656256011
