26
Coordinates from ORCA-job 8280optt
  Br  0.96552610857089     -0.66292185093618      0.25727666826352
  C   2.82013158634286     -0.31916631929962     -0.01751907887784
  C   3.71833558064621     -1.34457876585281     -0.06959360141587
  C   3.44523668222826     -2.81622936506687      0.13273500717005
  N   4.68501242776622     -3.49855749470284     -0.28253791711994
  C   5.76298977147846     -2.49721981231860     -0.08016330250490
  C   6.88446857014367     -2.81374262466359     -1.05122570800753
  N   7.30454642407287     -2.10592965057016     -2.01639200322006
  N   7.45643205035980     -4.05268861895400     -0.80707161226064
  C   8.34177498661650     -4.56681179135275     -1.82341740488286
  C   8.85846041909631     -5.88408278182641     -1.44431355460576
  N   9.25012839791819     -6.92394661898983     -1.16541999477826
  C   5.09828789131351     -1.15091816395109     -0.19358535526753
  C   5.75939813555577      0.09329770853180     -0.18355653612018
  C   5.12531765385104      1.34239945908357     -0.16677807979965
  O   5.60791367348058      2.46585691328701     -0.16327280536892
  S   3.25638653966958      1.36106450814720     -0.17612564710046
  H   2.59428582743551     -3.18920629381701     -0.43833335139293
  H   3.24727438975747     -3.02523498005493      1.18959137791910
  H   4.61038337838128     -3.62281832692492     -1.28925917712924
  H   6.17247633359274     -2.63881006291691      0.93215001902588
  H   6.80790473728851     -1.21643387347984     -2.03272251254054
  H   6.84027071069733     -4.71379688687821     -0.35329632299810
  H   9.17645699289202     -3.87629235422014     -1.95106151319025
  H   7.85819695730129     -4.64717226758369     -2.80410557900551
  H   6.84340377354308      0.13794031531087     -0.17700201479157
