26
Coordinates from ORCA-job 8286optt
  Br  1.96173143565949     -2.05827239371745     -0.23362525545546
  C   2.95003443182435     -0.44875069926802     -0.49757038548097
  C   2.46187761842714      0.65168650682282     -1.09975095896290
  C   1.03376242529433      0.86229291289280     -1.51678358744630
  N   0.18192790700928      1.32456716165063     -0.39417030320842
  C   0.83872952151064      2.22818184413730      0.55022956852854
  C   1.11263762865093      3.57400280636419     -0.10181292759133
  N   0.34327819883402      4.14640937942064     -0.91481704717492
  O   2.26584400229760      4.23039753106887      0.22174442780161
  C   3.23605259134043      3.73515813981464      1.06997391874113
  O   3.05397797306230      3.66807442069902      2.25007817360947
  C   4.47046430187683      3.29024699692724      0.32297599083266
  C   4.14286570818090      1.88077005743242     -0.11946819534202
  N   3.19878452111133      1.80483164732540     -1.07563204389080
  C   4.58341206188626      0.75168473185515      0.63741753539289
  N   5.31901072906109      0.63162059860149      1.68167077963131
  O   4.18141363217375     -0.47786508041912      0.07185506363207
  H   0.56995114145707     -0.03766160125771     -1.91918132209799
  H   1.03601268927236      1.63646162329875     -2.28523006656257
  H   -0.11628045674003      0.50842515332153      0.12740480861104
  H   0.14867251495043      2.40525686079444      1.37932191536728
  H   1.75196724195932      1.81321503889718      0.98103788025482
  H   -0.44797179006150      3.52414689735582     -1.07611826247436
  H   5.33376051937335      3.33973831654355      0.98290100471802
  H   4.61478985324699      3.92002810197297     -0.55476164303311
  H   5.57729359834131      1.55135304746542      2.02531093160033
