21
Coordinates from ORCA-job 8287optt
  Br  1.61176253137585      0.87355829022529      0.50559584147877
  C   3.44847470460374      0.45550107752012      0.17655709572254
  C   4.41809666139638      1.47554106915598      0.00485801156077
  C   5.76168296955948      1.02582258512772     -0.29292043455878
  N   6.02210840994412     -0.31652591052492     -0.15026120217078
  C   5.07597532599418     -1.28506977221620      0.06022927321780
  C   5.52263409222382     -2.63386903880451      0.09071984871890
  O   6.70607756489413     -2.96455522823018     -0.05768525634231
  C   3.74325722589474     -0.88446129006923      0.19417001876939
  N   6.83307982482495      1.69057478921908     -0.65454166384834
  O   6.61697170767684      3.00449097140645     -1.17543129558758
  C   6.41807472650615      3.98584799030000     -0.28663319831726
  O   6.76368804812609      5.11145430290108     -0.47844893972634
  C   5.51493528203889      3.55520342682767      0.87088888788888
  O   5.73458861506174      3.81617028376617      2.01610492353688
  C   4.25089671878305      2.87534240739033      0.35963936321973
  N   3.24725044661656      3.66478635416987      0.33653386596695
  H   6.95921103149864     -0.63708180072976     -0.36245402081892
  H   4.73222753804360     -3.38527747305980      0.25345320739879
  H   2.97486526776431     -1.63026965334205      0.33341477405767
  H   2.42614130717267      3.21081661896686     -0.05378910016677
