25
Coordinates from ORCA-job 8294optt
  Br  1.01683094112544      0.04386230354653     -0.35918323151296
  C   2.89926590372925      0.06394968165807     -0.18075769990068
  C   3.63127237797977     -1.12404053964637     -0.06113584107863
  C   3.13835506579170     -2.53745436509529     -0.02590449824955
  N   4.34104774968549     -3.32167535163804      0.30456910466763
  C   5.53171226605572     -2.49080716546858      0.10549644928319
  C   6.24946762426108     -2.80177209328269     -1.19584941213870
  O   5.87187622232221     -3.64742113982153     -1.96962949758724
  C   4.99300398846037     -1.08282748805690      0.03936423215684
  C   5.68433546070923      0.16067711569095      0.03324851636437
  C   7.09091902692921      0.27622535195004      0.16051689492049
  O   7.88879931627565     -0.68264590104666      0.26450025278784
  N   4.93836962436488      1.31785510453888     -0.07391758262616
  C   3.64932417762580      1.24792119942966     -0.18223072124574
  O   2.92175134787649      2.42413248442453     -0.28546041983037
  C   3.55955196678270      3.56769583073246     -0.62224095046728
  N   2.97506720842357      4.68183100547513     -0.67622920118228
  H   2.70185468274695     -2.81415288270293     -0.99398625057297
  H   2.35947250134743     -2.67072176238950      0.73072542335719
  H   4.40885433019024     -4.12840647100434     -0.30440279826589
  H   6.26473094118173     -2.60064615714114      0.91124834511764
  H   7.14149984046124     -2.18604608781688     -1.38851072563835
  H   7.45963745815065      1.31586834864932      0.16206727480101
  H   4.61285311229313      3.44671069403158     -0.84840169050048
  H   1.99414686522995      4.57088828498370     -0.41489597265891
