22
Coordinates from ORCA-job 8295opt
  Br  0.82981241436241      1.02367874209757      0.00127952879557
  C   3.12467308647086     -0.12223153830398      0.06577634375648
  C   3.77160545422618     -1.34473949832632      0.05057849832460
  C   3.34079482279180     -2.68703453594463     -0.02434210668778
  N   4.36681241526848     -3.51227802986568     -0.10373458546528
  C   5.51763551803444     -2.77142094337832     -0.07672734594052
  C   6.82240141242203     -3.40331621139569     -0.22258900697898
  O   7.01580595069170     -4.59142921118096     -0.36451719577612
  C   5.21396617728363     -1.40128964812293      0.03243759325101
  C   5.88224607597434     -0.14547136386517      0.09508948813038
  N   5.24322101418317      0.99611686904715      0.09434354839294
  N   3.89885269181261      0.94968883373371      0.07093347320841
  C   7.34642677972880      0.05832375259206      0.16731630652184
  N   8.12126325694751     -0.66264673070787      0.92636430611369
  O   9.38489468043908     -0.14701426554084      0.78226331142183
  C   9.34143077032126      0.88469014635095     -0.06660589709639
  C   8.08135591049827      1.08457559205494     -0.49746828486468
  H   2.31776531129419     -3.03429390562450     -0.03541558810974
  H   7.67741424446303     -2.70949013521225     -0.20973321067765
  H   3.44583973643820      1.85545709347288      0.07002811154541
  H   10.28165652866970      1.37251067080935     -0.26223346247787
  H   7.69612574767780      1.82661431731059     -1.17204382538717
