26
Coordinates from ORCA-job 8296optt
  Br  0.97780592509596      0.09873857498475      0.23902592884989
  C   2.87970125394786     -0.02482866982803      0.13270732881628
  C   3.52828933346549     -1.20832046985015     -0.07997529026046
  C   2.80830944068520     -2.51342225541396     -0.26853930711313
  N   3.62038519198178     -3.60987794922398      0.23459510639393
  C   4.87838588339361     -3.70482605326650     -0.49495518944087
  C   5.67598495419817     -2.40409105386364     -0.47183632162803
  O   6.89367859882831     -2.48189831792151     -0.70482611388835
  C   4.96055037413454     -1.19173301568838     -0.20787595337400
  N   5.67166138276786     -0.01430142368825     -0.11931157660077
  C   4.99507083612774      1.09135553641710      0.10209589366828
  C   3.61686091487874      1.17580117175386      0.22994233313679
  O   3.02064409990939      2.39521754051307      0.50234991858020
  C   3.46847012093986      3.41001602464049     -0.36449553892661
  C   4.98697792560308      3.52202581728429     -0.43180951870254
  O   5.50584228255591      4.45552782201428     -0.99279277138433
  C   5.74664155757859      2.39655334507241      0.22343501985959
  H   2.58213522644992     -2.62749755148259     -1.34534928672750
  H   1.85910894376175     -2.50088266746573      0.26538964068175
  H   3.10360379511027     -4.47620221165414      0.14786604348815
  H   4.72728420923025     -3.98564430896251     -1.55277479686326
  H   5.50914090129180     -4.46923274432717     -0.03934497767591
  H   3.06214513228870      4.35839475467885     -0.01093043451736
  H   3.11056755705798      3.23184134820765     -1.38644405602647
  H   5.83598884559416      2.66098229384534      1.28555217677378
  H   6.74676531312300      2.31430446322449     -0.19569825711904
