23
Coordinates from ORCA-job 8297optt
  Br  0.90591330883635     -0.24341173189516     -0.32848852737445
  C   2.77875427546073     -0.14999405201748     -0.06703284543582
  C   3.53289007532088     -1.35830325124895     -0.08802735149380
  C   3.26826047652748     -2.75780996909826     -0.13024609131999
  N   4.37818447818028     -3.48519433758188     -0.12371501020271
  C   5.42715158545609     -2.58921346417592     -0.07713547044920
  C   6.79942219703524     -2.93900180719155     -0.03695093965123
  O   7.72837823965730     -2.12798919536691      0.01852874301033
  C   4.93099086431126     -1.28112770413997     -0.06078804562795
  N   5.59594769815948     -0.07695425272175     -0.02770592007570
  C   4.86977867752447      1.08563164175500     -0.03692317710479
  C   3.48552578361984      1.07363438425025     -0.05497104004861
  C   2.82660669505714      2.38576924349457     -0.03140626594173
  N   1.83747123468145      2.74992330140093      0.72683841472958
  C   1.49443100998944      4.05311500985171      0.50487809734881
  C   2.21781506402083      4.70973397905865     -0.43957209883164
  S   3.37777538993654      3.64205610280779     -1.10368215750610
  H   2.28961038613953     -3.21668853130699     -0.16955597413926
  H   7.01259205094019     -4.02422867549341     -0.05502750569209
  H   6.60354233640893     -0.10379770485337      0.01916205494417
  H   5.42435576661159      2.00861839048839      0.03825356358481
  H   0.69036613331922      4.49159642083582      1.07895315238524
  H   2.12323627280573      5.73263620314848     -0.76338560510787
