27
Coordinates from ORCA-job 8299optt
  Br  1.05829357989479     -0.31380696084843      1.06904233543970
  C   2.72677709255502     -0.16674723991343      0.15304368917872
  C   3.62355967665548     -1.24116180858682      0.11583903070179
  C   3.45072813073945     -2.64276616369563      0.25805277134519
  N   4.58228654449139     -3.31221755798070      0.07969297495735
  C   5.55178772529522     -2.38446292934575     -0.17877254213624
  C   6.93872795768533     -2.68856802433427     -0.43371047784611
  O   7.46435890129174     -3.78602623938621     -0.46060367677717
  C   5.00889928577070     -1.08704529281166     -0.16119262754572
  N   5.67546465209683      0.11412615508168     -0.32068616026426
  C   5.06235999361564      1.22266368678411     -0.26362462133062
  S   3.31637832646344      1.46799050988610     -0.03219117543430
  C   5.80620742848806      2.54307876019184     -0.40481189385052
  C   5.83178679637793      3.33580687848448      0.92923615451126
  C   7.29886203094583      3.74272408700258      1.09247332660197
  C   8.02179627813784      2.58483813115561      0.41992332059907
  N   7.21141451322392      2.36528129256961     -0.77782655083808
  H   2.52112911988279     -3.14729961901733      0.48504685540825
  H   7.54900900561212     -1.78197866723772     -0.62208228424547
  H   5.29136480575031      3.12319165460754     -1.17795804881440
  H   5.53191901700175      2.67873199156775      1.74709053810219
  H   5.14635962710453      4.18203886226584      0.91915763768058
  H   7.58525470356782      3.88320003318385      2.13462726041154
  H   7.50591605654532      4.66547462040986      0.54683391453918
  H   8.02989247233242      1.71117832212014      1.08600034987946
  H   9.05138328324020      2.82182875412877      0.14711246232521
  H   7.33708299523387      1.42192676371818     -1.12971256259859
