27
Coordinates from ORCA-job 8301optt
  Br  1.39948324316387     -0.00705943674408     -1.25959410921348
  C   3.08358084331996      0.23926172599827     -0.34623628138674
  C   3.56069870811338      1.58854300407454     -0.06331773422061
  C   4.96078792425779      1.77005491877952     -0.03817001712675
  N   5.63547773160459      2.94290709432301      0.09777137047760
  C   5.07346412530772      4.23423602915050     -0.14985684521455
  C   3.91212162760164      4.52772528815392      0.77351931311553
  O   2.71692772341134      3.91035993468002      0.37181453576527
  C   2.53772221841296      2.53629291852612      0.40371856704290
  O   1.44536403417383      2.18232768399872      0.77177768113888
  C   5.81115630527965      0.62420695381462     -0.10639690029939
  C   7.22699606287559      0.61075830942828     -0.07033249111531
  O   8.02830912464360      1.56131687114547      0.03293840146656
  C   7.68401767469009     -0.84413767815269     -0.21532622908423
  C   6.40042925055852     -1.69664295597234     -0.16245619675514
  C   5.27878077001894     -0.68537059806161     -0.23928773065034
  C   3.93627681022831     -0.86823787770746     -0.42019749672336
  H   6.64769526151787      2.83028349672626      0.07731582416795
  H   4.71583841863969      4.33273660805802     -1.18413584255974
  H   5.85817431151708      4.97530218278089      0.01149213640583
  H   3.69069394780927      5.59654139723850      0.76494790635186
  H   4.17520864290807      4.23276803686761      1.79498616935356
  H   8.20706680576347     -0.93948834544893     -1.17121085675780
  H   8.40450998224902     -1.08629708936338      0.56761755768246
  H   6.34656472406902     -2.25304857565614      0.77783693453097
  H   6.34689041247892     -2.43078211716626     -0.96900172970812
  H   3.52076331538568     -1.84555777947146     -0.63721593668379
