24
Coordinates from ORCA-job 8307opt
  Br  1.06468873417511      0.26040233992380      0.06053871821969
  C   2.95404152187192      0.08911910951888     -0.01051934870864
  C   3.58835258708701     -1.16034743380352      0.17269019377815
  C   3.24501054721385     -2.51472319961382      0.41164068347963
  N   4.32033506603005     -3.28047929050555      0.51829851662307
  C   5.42492964145511     -2.46426921637907      0.35620564839258
  C   6.76085225624668     -2.98554589401685      0.45793612556500
  O   7.78437982781527     -2.31550251069453      0.40552021123667
  C   6.86190335067687     -4.50183812003550      0.67264039918894
  C   6.40898363475229     -5.33824792113179     -0.55490146026408
  N   7.64365350511632     -5.86202644638365     -1.15842853515166
  C   8.58414949124071     -5.54878334714738     -0.36927645765513
  N   8.26443247531853     -4.90115975170306      0.81728566160909
  C   4.99191461331449     -1.15671504250333      0.13797878108815
  O   5.71644338343446     -0.01899502077641     -0.08290104304214
  C   4.96464867041875      1.11246976529775     -0.24984357194085
  N   3.67536662276444      1.19022887957635     -0.21691059997895
  H   2.24633688476844     -2.91812567109575      0.50641355347109
  H   6.27533787009116     -4.75807052312046      1.55269827199427
  H   5.84764792214378     -4.74466723357451     -1.27505415025372
  H   5.76829207506710     -6.16644617684358     -0.24811802026510
  H   9.62376251178130     -5.79438424860098     -0.56424906660518
  H   8.86054616161164     -4.10436990422607      1.02362718251327
  H   5.58199064560412      1.98047685783928     -0.42127169329417
