20
Coordinates from ORCA-job 8309optt
  Br  1.14552161098578      0.05242352436037     -0.21420161891697
  C   3.01905697288102     -0.04651636465667     -0.06228743389438
  C   3.62292585851557     -0.84615809913142      0.91370563781980
  C   3.04863337490282     -1.67651057258412      1.91551447881844
  N   3.75295019334255     -2.37255829430450      2.78185722535349
  C   5.10850866698850     -2.33353191003282      2.75687528530061
  C   5.86659393482083     -3.10229543661738      3.77188559749479
  O   5.38260741242538     -3.73292697885723      4.67794060564293
  C   5.79605235693543     -1.57514890657868      1.82057887230589
  N   7.14857237245686     -1.36310926297784      1.58856719204046
  C   7.19311629750793     -0.51098796556411      0.57912656686468
  C   5.89991379501269     -0.12435410582788      0.09031267400476
  C   5.02550909173961     -0.82530473499808      0.90452702848397
  C   5.37292950836800      0.74639509171996     -0.92160113159178
  O   5.99139302271394      1.45909563752571     -1.68383098754633
  C   3.79903097560892      0.74593880937588     -1.01775565945545
  O   3.27027930347078      1.40652461985588     -1.89140305571872
  H   1.96881698041586     -1.75460403043366      1.98870488034966
  H   6.96056797822822     -3.04143422401401      3.63579784160337
  H   8.14302029267925     -0.16693679625938      0.19068600104077
