29
Coordinates from ORCA-job 8321opt
  Br  1.20865962743168      0.12448266231769     -0.51158041632403
  C   3.15290608273419      0.06010512439712     -0.31602562120404
  C   3.74159850365513     -1.15127406465123     -0.07081846088420
  C   2.99686164183952     -2.44339328217391      0.07880009042763
  N   3.83174527431729     -3.58805612264511     -0.28189434245676
  C   3.09454079685993     -4.82653870673865     -0.24753489165007
  C   2.52575888302769     -5.22075661280110      1.10130761105320
  O   1.54944142007623     -5.91013463123689      1.24202130015797
  C   5.09132682199154     -3.61884906640943      0.44342771024219
  C   5.93762181997340     -2.40970074286794      0.05986379440714
  N   6.43497998296437     -2.57623708432714     -1.32659925140873
  C   7.37299263155889     -3.45567404293392     -1.68662185891093
  O   7.93019522955259     -4.24256531413541     -0.93909873845817
  C   5.16049712085208     -1.14389851510831      0.18120774200848
  C   5.80037431536543      0.12630558869647      0.08847416808502
  C   5.07261467322171      1.25084527915340     -0.17066917087684
  N   3.71676552618611      1.26467876432326     -0.38411130104777
  H   2.11115405383733     -2.45541725434539     -0.55600039856526
  H   2.64272850175779     -2.53937947583717      1.12695919212643
  H   3.75964824119899     -5.64394641165431     -0.55223524558542
  H   2.26584683084566     -4.79779256320579     -0.95983439862053
  H   3.08253517152510     -4.85630989454753      1.98588659481886
  H   5.62706583728460     -4.53525907494911      0.18815836118651
  H   4.95306134172506     -3.58698463354882      1.53674669750321
  H   6.82766482342035     -2.39608014184973      0.69599818570998
  H   6.01586061026071     -1.98541038182899     -2.02731813046731
  H   7.61950045722284     -3.40783553905159     -2.76303746433642
  H   6.87277090121617      0.20641380482747      0.23897943846934
  H   5.55628287809739      2.22166233313218     -0.20845119539949
