26
Coordinates from ORCA-job 8322optt
  Br  1.10659698677747      0.18949715047146     -0.48290551110417
  C   3.02831325358456      0.06221421305449     -0.35864713891483
  C   3.67312963996929     -1.17515632639889     -0.39768498567470
  C   2.89503379752007     -2.39643983681050     -0.84307393847463
  N   2.23174711242456     -3.12266053072521      0.25468884048279
  C   3.05365623366784     -4.09710306951666      0.95835123248932
  C   4.28437638644151     -3.44051427540321      1.57994826406697
  O   4.22655442840596     -2.98803348902933      2.69798439983228
  C   5.57665573846019     -3.46546020914565      0.80319021408773
  C   6.01789917808121     -2.18456870491921      0.06638619727869
  O   7.23185827462473     -2.12634688199223     -0.19389076317479
  C   5.10479638745582     -1.11227850507661     -0.21551776502478
  C   5.69484310323813      0.18051247040274     -0.30860809499459
  N   5.05154511133801      1.31771784642437     -0.33206276867257
  C   3.69238642088145      1.26443479406939     -0.28559818577904
  C   3.68172282938653     -3.27272074677155     -1.73363258992972
  C   4.29258055390521     -4.00237281126809     -2.46395163266283
  H   2.06995189403529     -2.02750271334722     -1.45538307262240
  H   1.40912787298277     -3.58745295713512     -0.11262205859125
  H   3.38562873399712     -4.91564390503554      0.30432284815994
  H   2.46135584781270     -4.50380022616521      1.77819257527702
  H   5.57231041589122     -4.28788270337370      0.08513102474520
  H   6.38033558462064     -3.63529421052943      1.52162027166710
  H   6.77867346805754      0.22067657426984     -0.31907748671045
  H   3.15319492790492      2.19956578102728     -0.22416730354265
  H   4.86872581853519     -4.62438672707613     -3.10499257221362
