29
Coordinates from ORCA-job 8323optt
  Br  1.24562838980034      0.22883116540640      0.60646106809806
  C   3.03782090359096     -0.00377957880967     -0.38341586626747
  C   3.71445015376098     -1.20356225599685     -0.15268936667993
  C   2.99053633378419     -2.52124290873732     -0.06864811567411
  N   3.83596067743301     -3.66909514952511     -0.41453449541422
  C   5.10181386750879     -3.60507010230525      0.31329621646227
  C   5.84567330942248     -4.90287175263789      0.07028264756463
  O   7.02984729192922     -4.92629892347342      0.84416827387242
  C   7.76227410893277     -6.10106862006513      0.69258181342904
  C   8.94526175053380     -6.04599873175785      1.62855454458311
  O   9.77094615355692     -6.91241612549777      1.70382879741816
  C   5.92890210290018     -2.37676929362621     -0.05406651949879
  C   5.09873319388139     -1.11418446882250     -0.07745100651085
  N   5.78365728106005      0.02924957134688     -0.05651937435458
  C   5.09228790495430      1.19408362428726     -0.12727329943690
  N   5.55123674079583      2.37813598453734      0.00128802053226
  O   3.72088558241118      1.14934324941733     -0.42368558161793
  H   2.12078619571117     -2.51624651716767     -0.72737651901877
  H   2.60654593321880     -2.68727598299231      0.94424871387732
  H   4.04510676698689     -3.60702383114546     -1.40874312023965
  H   4.84812684319510     -3.55848272118199      1.37823651117174
  H   6.10037286611232     -4.99320945533320     -0.99676620587653
  H   5.20364004006000     -5.75008258966998      0.33898285455304
  H   8.13131871181469     -6.23093294079246     -0.33458559331819
  H   7.16655042993611     -6.99135008553424      0.94209685668907
  H   8.99046514999231     -5.13424013485010      2.25308796516272
  H   6.37460729415129     -2.52169417234337     -1.04803303684189
  H   6.75835106721551     -2.23596624986346      0.63981304414666
  H   6.54721295534926      2.28321899713406      0.17986077318931
