23
Coordinates from ORCA-job 8329optt
  Br  1.12310421038443     -0.05403502475756     -1.09927096620145
  C   2.94985505277969     -0.12241431605886     -0.53565774178284
  C   3.58379870209222     -1.23607163426971     -0.08834908407862
  C   2.87405386655429     -2.50448068479959      0.24457214383386
  N   1.69727518346515     -2.59995623679004      0.75022433268712
  C   3.62275420861575     -3.72151759515436      0.00063980506593
  C   4.96092595862033     -3.64492005267747     -0.16621867317095
  O   5.73659436641201     -4.78587163782143     -0.30225705886201
  C   5.22631637377931     -5.83716879500389     -0.97634907265903
  N   5.70938116082948     -6.99676461223344     -0.93893834040496
  C   5.70922396401712     -2.43529598164753     -0.14232100755338
  C   5.06864753462620     -1.22756285789304     -0.07803026104678
  C   5.78463056353050      0.02762083701694     -0.03404451879928
  C   7.19719757197850      0.10450967627281      0.23767159869619
  O   7.99564666405064     -0.81642585663340      0.41033369000230
  N   5.20109804076941      1.24969176792610     -0.17455345128835
  S   3.70291256472272      1.39067239805697     -0.79142595154683
  H   1.30884442381058     -1.68213439002582      0.94767638810885
  H   3.09950708513172     -4.66002331950595      0.11762074395794
  H   4.36440020885389     -5.59575082649700     -1.59552485325416
  H   6.50139550854923     -7.02349907941330     -0.29529599193552
  H   6.78502164046207     -2.48447396427900     -0.18257232823076
  H   7.54241514596469      1.15387218618858      0.29207059846274
