31
Coordinates from ORCA-job 8332optt
  Br  0.87002366282133      1.33185651987343     -0.56320899934122
  C   2.79988279205600      1.55820799868094     -0.44902075228603
  C   3.39413145674423      1.69315880287411      0.79573826048792
  C   2.86699254468408      2.53516643285594      1.92181740475065
  N   3.18961450768715      3.96892031115399      1.74365292781366
  C   2.29595211842216      4.64347017827557      0.80172971613627
  C   2.96176263002247      5.76757758492960      0.01553715279529
  O   3.42407866099524      5.32435472004610     -1.26371251185996
  C   4.66303434326057      4.78420976502483     -1.36007710072253
  N   5.47444221319035      4.84362276508839     -0.39699737552947
  C   4.86301325487941      4.15893920138980     -2.72691070175383
  C   5.53184380040486      2.76453903819208     -2.66212625786517
  C   4.90648339447595      1.94847624116488     -1.57267640035205
  C   3.52514393484041      1.61782522960333     -1.61952632765898
  C   5.59610138833904      1.88918471047491     -0.33523993184745
  O   6.80551911538087      2.12133348053626     -0.14137093033640
  N   4.79794804308920      1.57017914989649      0.76808080832408
  H   3.30806796102987      2.21273047394232      2.87095221774567
  H   1.78486188672365      2.43031732957474      2.01287939195225
  H   4.14074325744782      4.03816963403091      1.38821736202221
  H   1.45725247095973      5.06773603818129      1.36616750947953
  H   1.86826756376800      3.95384991395650      0.06494142581696
  H   3.78326811609250      6.21378247981207      0.57727080308635
  H   2.22466555130687      6.53531194721882     -0.21905786826784
  H   6.32447959918229      4.31454149071559     -0.58487463287073
  H   5.44568569910611      4.84993338110676     -3.34511379547241
  H   3.87558464416213      4.06501580665050     -3.18001219012559
  H   5.42807099964875      2.30516335438862     -3.65179774558219
  H   6.59923813322701      2.85967822722882     -2.45661210699772
  H   3.02852417892196      1.47978028841569     -2.57492005729714
  H   5.29932207712988      1.61396750471663      1.64327070575588
