27
Coordinates from ORCA-job 8336optt
  Br  3.48509163962158      1.24184515697293     -3.42855638282971
  C   3.82186580736715      0.35049581664619     -1.77273495734606
  C   3.93967699013004      1.10012824135995     -0.58927964761883
  C   2.98581865769449      2.21606357566912     -0.23976799901061
  N   1.48822058451797      1.91793378967412     -0.10032794019515
  C   0.90564352890460      1.10131733728532      0.97779743575365
  C   1.99761627260452      0.10310604155160      1.25927908358858
  O   1.90539782712687     -0.92093353449287      2.25925230885306
  C   3.08109908550713     -1.58341297913969      2.40826701217867
  N   4.16591083384207     -1.58113990932073      1.75137975360537
  C   4.32895600639410     -0.83138991904991      0.55724529864416
  O   4.12394629671980     -1.62642712037744     -0.51625864289234
  C   4.12044718885302     -1.01983421451766     -1.81969388994889
  N   4.30876966871712     -1.79629850396418     -2.82281632178355
  N   4.47174756722101      0.42501061715368      0.53475265754251
  C   0.62905278673171      2.64455701615564     -0.86718645984086
  N   -0.64038322747928      2.78508137683480     -0.77675179148305
  H   3.00334425897335      2.97293101720465     -1.02324145294103
  H   3.32380335770775      2.68198027794437      0.68993266896842
  H   -0.00506833421665      0.63130678776812      0.59936718329048
  H   0.64734864652204      1.70856652657461      1.85475456780112
  H   2.84433185016638      0.69592566560536      1.55806588593014
  H   2.18525866278467     -0.38155916921552      0.30379388248066
  H   3.00791808379925     -2.23075895611294      3.27865335793755
  H   4.42516885323589     -2.74970008031295     -2.49104313505549
  H   1.13334778368553      3.16106954224719     -1.68307967248186
  H   -1.02333067713217      2.28813559985622      0.02419719685307
