23
Coordinates from ORCA-job 8337optt
  Br  4.50410418727803      0.06387787410136      2.26318600873315
  C   3.63702830046339      0.25865497937016      0.58668722093213
  C   2.49102682153630      1.09275964811595      0.48373096609823
  C   1.81937529800628      1.86612998750111      1.51984999458638
  N   0.54382107633809      1.73480130276394      1.59446987593282
  C   -0.15110610441269      2.94427995612868      1.62462675846873
  C   -1.09915618966215      2.97240557698131      0.68521698408861
  O   -1.32715347216619      4.09552216260987     -0.09815975354093
  C   -0.40083151405822      4.11928060598167     -1.14206044288586
  N   -0.62401573896474      4.77294671198636     -2.18911484656065
  C   0.93403538014441      3.39284051869953     -0.85176663728587
  O   1.77104511832810      4.07896959890417     -0.26363073239652
  N   1.00501878195868      2.12522766533300     -1.24944284879972
  C   2.00174978076840      1.30630031427644     -0.82540640704445
  N   2.58457484921300      0.57858711718727     -1.81941697743231
  N   3.58596167184408     -0.34831149484415     -1.72004092049586
  C   4.10700520103682     -0.44141503851885     -0.50177562915462
  H   2.34349076516828      2.73287314295352      1.94281061822917
  H   0.31622884949216      3.85734859400039      1.99099312393393
  H   -1.46740179534099      2.04599256289475      0.26179690937755
  H   -1.54470535663847      5.21013646977906     -2.13322615853151
  H   2.25641937474815      0.76191738816182     -2.75361647026175
  H   4.93748471491926     -1.12912564436737     -0.40471063599067
