23
Coordinates from ORCA-job 8338optt
  Br  1.19550743455329      0.08027262877400      0.36310232718019
  C   3.07508496930768      0.02356309223456      0.16980453838485
  C   3.69943138138236     -1.22500225637013      0.01353102957864
  C   3.04440529163386     -2.46264798080509     -0.04320144288269
  N   3.62067742454470     -3.67191593632523     -0.17310170852318
  C   4.96290839619971     -3.64902721506167     -0.23237265012625
  C   5.70959071757651     -2.52027651261354     -0.19203831316030
  O   7.08003452692916     -2.53558379060684     -0.23566518108604
  C   7.74223847550234     -2.90022610625726      0.90163816380542
  N   8.98653081160280     -2.85890407600130      1.02263581983592
  N   5.12192401854240     -1.24192875403244     -0.09929163306639
  C   5.80405432986581     -0.05680915658640     -0.11505600276457
  C   5.18961433119441      1.15039872527347      0.01997255105301
  C   3.74999094405073      1.27983395137625      0.19731567942298
  N   3.14847626291516      2.41823176976563      0.35516995849605
  C   7.23100011464117     -0.00243958563893     -0.30108368950676
  N   8.35261964572860      0.19630937040995     -0.44708831406419
  H   1.96791277761457     -2.44349842730568      0.02664793413869
  H   5.49454428247213     -4.59138125607612     -0.31829798566561
  H   7.07942294292806     -3.25197082016404      1.69171033174766
  H   9.41212587390838     -2.46703298084806      0.18101770612241
  H   5.79927978834644      2.04226244179457     -0.00868674639646
  H   3.83862525855963      3.16577287506433      0.33733762747661
