22
Coordinates from ORCA-job 8341optt
  Br  2.38529027352044      1.47374213863344      1.78822180277864
  C   3.76479124755981      0.74591450344607      0.73471971125543
  C   4.80685403118675      1.52661070033972      0.15824144289078
  C   5.73733304286303      0.79861009558675     -0.69192045194246
  N   6.93194155648961      1.41451212209484     -1.20445712731417
  C   7.84356690709983      1.76538623185100     -0.20575539034243
  C   8.29926146246849      2.98275592484364      0.07466164118384
  O   7.87660849525205      4.15625970846682     -0.55031892617611
  C   6.61417456414080      4.55193853058370     -0.20794133020440
  N   6.41291678853759      5.69016511224378      0.26972158359418
  O   5.69449300577933      3.61628216688340     -0.53900969134245
  C   5.00367989096715      2.90585770703284      0.50131843428922
  O   4.65364559647733      3.52713981954081      1.47420526343494
  N   5.63901646511017     -0.45412451683316     -0.96590393199055
  N   4.57808771309068     -1.11432288874445     -0.45859233702151
  C   3.61657866942271     -0.64000885936911      0.43130708537702
  O   2.76429729654821     -1.42553371575135      0.83851482754817
  H   6.69468188423518      2.22667356218577     -1.75645984001375
  H   8.20829555995193      0.93798969274952      0.39227793873466
  H   9.06021053253374      3.14803216234186      0.82451404823618
  H   5.41331594757131      5.79924828603451      0.42602253067378
  H   4.54395906919370     -2.10012848416043     -0.65736728364902
