23
Coordinates from ORCA-job 8347optt
  Br  2.05562314744628     -0.39209656011041     -1.96995268943180
  C   2.98941061141107     -0.01464106866487     -0.27088256409466
  C   3.50601867085954      1.31220064012610     -0.07712718460461
  C   4.90297586996667      1.39774589068843      0.15322902077120
  N   5.54606350723913      2.63900284351789      0.18189604063294
  C   5.27419153492090      3.58022726107247     -0.86710611566076
  C   6.41111978463617      4.55951259299789     -1.02519440196810
  O   7.46544918587970      4.44313865824986     -0.46310872476556
  C   3.96472880677597      4.35791332778077     -0.68471152403743
  O   3.71614662361040      5.29462406485928     -1.40265184548422
  C   3.05958979980982      3.81612806412858      0.36773954129331
  C   2.56351405288171      2.39222910420262      0.00285406789984
  O   1.35889657195369      2.26629411349012     -0.15851134439657
  C   5.66185588804068      0.26791060328797      0.35344441704638
  C   5.07016253415965     -1.02814312659503      0.42044516695598
  O   5.60884327786709     -2.06973402425381      0.70977789200193
  O   3.71559872099400     -1.09240144065389      0.10505694853246
  H   6.53938984980759      2.57100513419233      0.36527662750750
  H   5.16042709743450      3.09497568553900     -1.85325227696848
  H   6.19745916002024      5.39991959886325     -1.70421325497613
  H   2.18264138142357      4.44977732119348      0.45774891836330
  H   3.61444112015534      3.76192447277814      1.30717349683587
  H   6.73245280270605      0.32148684330970      0.48706978854762
