28
Coordinates from ORCA-job 8351opt
  Br  1.41435494264692     -0.21055158496912     -2.55330340688810
  C   2.44191076567298      0.56007921925524     -0.27862001998583
  C   3.20474481892998      1.70665096544261     -0.32599587303540
  C   3.30557755721988      2.63614007796355     -1.50881928838870
  N   2.73510342570679      3.93396379317807     -1.10073391446854
  C   1.28518468495524      4.10226468140404     -1.17495763425007
  C   0.37087548511562      3.01232403341280     -0.64407677732111
  O   0.49037139147882      2.76289368708534      0.77597412762483
  C   -0.45096384751074      1.93368177610597      1.24910772829032
  O   -1.47848238010367      1.69934835377457      0.67197030055613
  C   -0.18979773362605      1.28056269337305      2.61716460623432
  N   1.18212172133200      1.07498297353978      3.06173976178061
  C   2.12166702038182      0.95685507395775      2.02642112295900
  N   3.11350624215490      1.84199846114545      2.05668795538175
  C   3.66871336572423      2.17993106610025      0.90591938244045
  C   1.94437063455048      0.12231783594194      0.91735875137477
  Br  0.91872451955947     -1.48896026601983      1.08465727772534
  H   2.80436658230840      2.18216488608346     -2.36892868698604
  H   4.34822485066591      2.82651138270658     -1.77873551217188
  H   3.15703865468433      4.67503612560072     -1.64444790358019
  H   0.94622206123599      4.19728639672797     -2.21964383838725
  H   1.04349580337079      5.04293082182066     -0.67172685847264
  H   0.52940962046412      2.06288216367495     -1.16110575274956
  H   -0.65182835527457      3.33154683526054     -0.84587638228026
  H   -0.70697438538758      1.88748830510323      3.36313524937298
  H   -0.72325941236523      0.33300622164625      2.55070916001206
  H   1.50080394669006      1.82641535565484      3.65877207526388
  H   4.43251801941910      2.95124866502929      0.94835434994911
