24
Coordinates from ORCA-job 8354optt
  Br  2.12227138628606      2.82754241707096     -0.80224547590817
  C   3.06821673919102      4.36130535346749     -0.15117935196291
  C   4.26140558786865      4.18014195649408      0.51960133366054
  C   4.89718957590569      5.38563577897195      0.90746949272719
  N   6.11485706497258      5.38157322915943      1.57731108629853
  C   7.27441463995153      5.55388834672175      0.63444916196026
  C   7.22407562534658      4.42323894995511     -0.36661409664305
  O   6.46089501488978      4.77725948380119     -1.55082137313545
  C   6.89905395605222      5.70765744040589     -2.37405926385293
  O   7.89519538299688      6.37331790210788     -2.27118954951632
  N   7.03164358782072      3.22141098173053      0.12017894627838
  C   5.91431819207972      2.40519488971116     -0.31409088927582
  C   4.87086882945859      2.80578969347421      0.70465014634893
  O   4.58478931726257      2.14281220816824      1.69335477118594
  N   4.39776081328257      6.57917667353907      0.56371957860279
  C   3.25121052916621      6.58430282046378     -0.08565150910378
  N   2.53004171658760      5.52639575796676     -0.45385962040420
  H   6.25373709023471      4.44605859534827      1.95543499438446
  H   8.17635979900350      5.50103806449249      1.24015962176062
  H   7.21233665938433      6.53206027449958      0.16489310382896
  H   6.19571048459125      5.80540112656817     -3.21445559344008
  H   6.13397317249299      1.34690681091543     -0.17266786145232
  H   5.58674994585630      2.59135422299714     -1.34257878560199
  H   2.84592488931786      7.55353702196937     -0.35780886673958
