21
Coordinates from ORCA-job 8357optt
  Br  1.96298039938750      0.56085328565747     -1.63306193242995
  C   3.31294965161836      0.01485884007621     -0.05854428481339
  C   3.89798658941420     -1.26308519975762     -0.08741218815679
  C   3.47566477301474     -2.59884745607893     -0.26128871060865
  N   4.48869638159894     -3.44791395831167     -0.14776771656138
  C   5.61406364107110     -2.71627795344034      0.09752244006647
  C   6.92180145258803     -3.29555478950261      0.26521068822079
  O   7.23768047244929     -4.46593107381780      0.21929115585677
  C   8.05027294269219     -2.29190791967384      0.54098181768730
  O   8.52055509682377     -2.04708317011022      1.60730915188175
  O   8.51618569618346     -1.76197965799852     -0.63076840906542
  C   9.24637128316223     -0.60582893788784     -0.55755146716750
  N   9.87743144962188     -0.14218982036808     -1.53486655256858
  C   5.29055997561372     -1.34603491651407      0.14132393412939
  N   6.09883521962833     -0.25038815173146      0.31631983192303
  N   5.57679671522052      0.89219228130563      0.33133577357268
  N   4.22363021636566      0.99261684237142      0.19494116975254
  H   2.47130792768168     -2.93863436275950     -0.47011160392847
  H   9.20034589426343     -0.11863333059433      0.40978607682972
  H   9.78180933006356     -0.75807084464173     -2.34327420179347
  H   3.92307489153728      1.95384029377788      0.22062502717317
