20
Coordinates from ORCA-job 8358optt
  Br  1.12696332200536      0.11589667017362     -0.06638199931649
  C   3.04190384117303      0.06054297462207     -0.03127128451022
  C   3.68776914365242     -1.19229622050086     -0.06783498217338
  C   5.11477758369614     -1.16734021579234     -0.06601684257977
  N   5.74225383987296      0.04696019870662     -0.01985151901968
  C   5.01109550822901      1.20834739181605      0.02326654053205
  C   5.73157067273157      2.43240673034655      0.07280330775433
  O   6.96975482119047      2.48084118130104      0.07904267583933
  N   3.65619210834524      1.19378114673864      0.01298253680489
  N   5.68265823413491     -2.35081623109282     -0.11387666000839
  C   4.61360362685126     -3.22404525546469     -0.14358825234159
  C   4.77965127137472     -4.63337402481801     -0.19479124011809
  N   4.88391915004302     -5.77936733885818     -0.23583603667364
  C   3.39535223288572     -2.56366172514914     -0.11861807740557
  O   2.15703620481323     -3.17400384651467     -0.18216579513336
  C   1.45061221914617     -3.26387822246888      0.95661616288167
  O   1.78764191127328     -2.88478258825156      2.03269603852062
  H   6.74995502744171      0.13654781801029     -0.01223091193836
  H   5.10498214237039      3.33524526229386      0.10333902415335
  H   0.49630713876932     -3.75600370509760      0.73471731473230
