27
Coordinates from ORCA-job 8361optt
  Br  1.05867440991213     -0.15909623555647     -0.72545141978964
  C   2.91705900755241     -0.08245170617450     -0.21863552228588
  C   3.44649914718470      1.08460318621652      0.31255121680534
  C   2.69986226929710      2.36863990778796      0.57452078064705
  N   3.23261073632182      3.53892876840211     -0.11279412594984
  C   4.53344629761992      3.61200118877461     -0.66223103941741
  C   4.58149436478987      4.34206127601781     -1.88535683539056
  O   3.56360248808062      4.84385237730368     -2.44452967941777
  N   5.63614652116943      3.12405772067956     -0.11823535768793
  C   5.47864462849231      2.31899117233018      1.06635005071118
  C   4.80820330149880      1.03753770739240      0.64615137999121
  C   5.51761648018623     -0.14081865957828      0.43611182637540
  C   4.86109298206384     -1.23724974338169     -0.08881818155653
  C   5.52755970250110     -2.57524506633616     -0.34300058721907
  C   6.95655404885105     -2.62843716953833     -0.05600093781361
  C   8.13113815693368     -2.67343023790210      0.17550839431122
  N   3.56761278092257     -1.20685804431025     -0.41538359335895
  H   2.70919856339628      2.53037614016869      1.65974333437028
  H   1.65710008756468      2.25318671500148      0.28883227152796
  H   2.60381711069922      3.91638991365516     -0.81466292251249
  H   5.58777540094455      4.45918691476911     -2.31015187219712
  H   4.89227532873495      2.81147029094573      1.85964128792552
  H   6.46433361952029      2.09456494144091      1.48057540060585
  H   6.57290941439787     -0.19286983895444      0.67058819065528
  H   5.35762796649392     -2.84234155996106     -1.38847808052002
  H   5.01056562353063     -3.33300165465960      0.25135274230090
  H   9.17457956133988     -2.70004830453309      0.37680327888961
