27
Coordinates from ORCA-job 8363optt
  Br  1.78503957486037      0.65504218870202      3.21918140379714
  C   3.36757818969346      0.78682581428768      1.24607778971379
  C   3.66580423968458      2.00169836402625      0.75004880083835
  C   3.32558128625593      3.26927615230984      1.48462460721691
  N   1.86791113746046      3.48639999523863      1.26710459844911
  C   1.48400363497647      3.61664509459094     -0.05895888412112
  C   1.97883724153226      4.85298019073247     -0.77385339785762
  O   2.50896919157613      5.78497032490142     -0.23732767316535
  N   0.76286632019699      2.86553707079909     -0.79512270167251
  C   0.27789832420700      1.56071303195271     -0.36344773145782
  C   0.37906308089099      0.54147449488845     -1.52966924392466
  C   1.48112581877501     -0.53821361237539     -1.38576623359704
  C   2.71153454860041      0.14012761054855     -0.86336983867436
  O   3.02283912163066     -0.22541043233724      0.40902272669232
  N   3.22563306249936      1.13335538673445     -1.45712991778850
  C   3.91529219412402      2.09380787288823     -0.69608335128695
  O   4.54447553242541      2.98853180954476     -1.22687863771213
  H   3.87742282895523      4.12224995499936      1.09763061088156
  H   3.47957762426045      3.17150248111134      2.55572559896734
  H   1.37514343631338      2.73478198142424      1.74394400352778
  H   1.78446883567524      4.81909077322344     -1.85924164701346
  H   -0.77416246739381      1.67842685693272     -0.09010892072776
  H   0.78415165277241      1.18022558141882      0.53105166623415
  H   0.57579419489657      1.11544631320962     -2.43466419390434
  H   -0.57543851095666      0.02886541936084     -1.66209940628042
  H   1.66831379492464     -0.99645422036970     -2.35732130612571
  H   1.18527611116301     -1.31289649874360     -0.67936872100871
