26
Coordinates from ORCA-job 8365optt
  Br  2.30145421890728      0.13579843521718     -3.06566604157002
  C   2.43748454732669      0.40252605275197     -1.15260265932031
  C   3.05324720711134      1.56707739205472     -0.67840957060451
  C   3.09107490226013      2.88085593675068     -1.40468230547502
  N   2.34123338572312      3.97263765769112     -0.72058060298608
  C   1.24547708717222      3.55840732591236      0.15895197612592
  C   0.35229233566020      2.52119035815672     -0.49118305309453
  O   0.05580922404554      2.56063927829336     -1.66176686917336
  N   -0.14366010657550      1.47213504072703      0.28868389668443
  C   0.17312032269905      1.11175483667026      1.61178138009417
  N   0.03782229820515      1.84444250281492      2.63111690056947
  O   0.63601809271540     -0.16021036939070      1.74116429078593
  C   1.89971008476919     -0.33617518383121      1.03845245899364
  N   2.86428115391223      0.56257896417144      1.48182777650713
  C   3.38403057587775      1.60728742434749      0.71357932252063
  O   4.01692634126234      2.50986934735730      1.27589527442432
  C   1.86372451424371     -0.56521502661429     -0.36936900534655
  H   2.66710972941337      2.75067282438175     -2.39871547903183
  H   4.10918931049648      3.26032232507079     -1.51999568989478
  H   3.00452805988369      4.43178673504877     -0.10794108712679
  H   0.61733739866829      4.43583585366283      0.35108103393941
  H   1.59951949979289      3.19070693683347      1.12404069003048
  H   -0.38269413111090      0.68669559947321     -0.30484125116820
  H   -0.40627459548136      2.72028001560781      2.36413148787124
  H   2.96884471824315      0.69728420659247      2.47786907150593
  H   1.32539382477854     -1.40318446975147     -0.78882194526071
