22
Coordinates from ORCA-job 8368optt
  Br  1.34141986629566      0.36880747494222      1.00897556237107
  C   3.12330462648968      0.06216799608277      0.50895741728889
  C   3.70236712532058     -1.12496175540048      0.22373594312473
  C   3.11643476038771     -2.47824491043620      0.24175207227059
  N   1.87128480938648     -2.64059293415033      0.57884287192293
  C   1.37896998102480     -3.98800383962084      0.58523484605109
  C   -0.05969007140501     -3.98924384984597      1.02779326684487
  O   -0.70977748120594     -4.97911709973273      1.24760772066230
  N   3.89772850360390     -3.55401862781515     -0.09682168452515
  N   5.13694126629446     -3.47333017531910     -0.43243008151557
  N   5.69164821765580     -2.22664624864158     -0.44619215753045
  C   5.09713824488491     -1.06172107049302     -0.15114430776477
  C   5.74861194949673      0.15605112670879     -0.19073062540539
  Br  7.57069535638966      0.22536598910212     -0.69548641468550
  C   5.09927415179763      1.38456636720290      0.14110582967577
  N   5.53175383422925      2.57852291945176      0.18425153169058
  O   3.76080650965370      1.25498159413369      0.47285164428969
  H   1.94646519047165     -4.65941651306636      1.24446282745205
  H   1.42768745244543     -4.46869731131620     -0.40431004225313
  H   -0.50027808592596     -2.97873426796911      1.14144421212733
  H   6.66351572034132     -2.22958299496253     -0.71096798333913
  H   6.51369807236749      2.59684813114539     -0.06993244875279
