25
Coordinates from ORCA-job 8369optt
  Br  1.11609474063751     -0.09752807191072      0.56556176842720
  C   3.03421729718730     -0.18066389921129      0.17149048262047
  C   3.65688852179358     -1.39660427535080      0.23684760429705
  C   3.06244715869746     -2.72772281272645      0.57895057589192
  N   3.31057122171818     -3.71583768350705     -0.47423233765807
  C   4.69835724857435     -4.12831477106774     -0.70155983817655
  C   5.69086768411305     -3.67323963329255      0.36258215573610
  O   6.34515256858507     -4.46761399464602      0.99098345953883
  O   5.88111406292268     -2.37062856240625      0.52597697885895
  C   5.05020994290601     -1.41582016937348     -0.14463649584575
  C   5.65875441697130     -0.16092213038029     -0.41122000016859
  C   4.88510229373231      0.96237723219432     -0.43796328764276
  N   3.54504063569154      0.99506403408298     -0.15491217086012
  C   2.44003685669368     -3.76872522540577     -1.54187714215095
  N   1.37614903412724     -3.09848091445142     -1.74742585585483
  C   2.77416461312165     -4.78407979698908     -2.53492914619149
  C   3.04299444320227     -5.61542871599014     -3.35400782776964
  H   1.99406550108295     -2.67111229127608      0.77034178155199
  H   3.52124918092962     -3.12805156381410      1.48864309135875
  H   5.06607642537457     -3.70901787214515     -1.64513806259589
  H   4.77110016874908     -5.21375716325126     -0.73905312954674
  H   6.72075696581704     -0.10324562877973     -0.61506673445415
  H   5.32298409332047      1.91882388588685     -0.70314231733015
  H   1.23728514157084     -2.36475799630130     -1.05384899240605
  H   3.27331978248003     -6.34971197988732     -4.08736455962950
