21
Coordinates from ORCA-job 8371optt
  Br  1.77830368308815     -0.09388778901833     -2.65578545729870
  C   3.02850014110180      0.29974338453080     -1.27840757350632
  C   3.67030958474692      1.47771024022711     -1.16444532407886
  C   3.04706564609560      2.78425221601450     -1.35996795325439
  N   1.84644661762019      2.97325673537000     -1.74970067858145
  C   1.12121325113437      3.93635226068301     -1.08036737293961
  C   0.98267321518687      3.91683626679721      0.25254422491709
  O   1.69124064649416      3.01566558606302      1.05358133712875
  S   0.94227843506146      1.68725554643612      1.58549250354673
  O   0.32856009015330      1.05528966782492      0.46941455143440
  O   0.15346027789529      2.06285394492843      2.71807830746818
  N   2.17822832182997      0.76251825912038      2.13694010855745
  C   3.30851732351666      0.42921931114811      1.29363551546998
  S   3.09978173984859     -0.82047658753809      0.06964694626903
  N   4.26784769542341      1.33478424507940      1.15790670394152
  C   4.72578680584074      1.64591872049871     -0.07058711532153
  O   5.77406970177774      2.21710318631410     -0.33933329027706
  H   3.58959113876996      3.58683210919671     -0.84975788252008
  H   0.51971916470661      4.63665330868294     -1.64952857180583
  H   0.30332541501582      4.56187930275118      0.79186489003249
  H   2.47308110469234      1.11324008488971      3.04277613081822
