26
Coordinates from ORCA-job 8372optt
  Br  0.76319858677956     -0.41377069858635     -1.16156800376516
  C   2.97069471351219     -0.02668821233269     -0.02951854127305
  C   3.64207345078056      1.18651597649460     -0.04541865323407
  C   5.04934706934143      1.22687431326943     -0.07664469440806
  N   5.80038726544581      2.40623863628147     -0.03260214142197
  C   5.16741187268272      3.67697272103308     -0.32319348365693
  C   3.95435457927481      3.83632993712974      0.57401681959788
  S   2.69334872790136      2.67810507900678      0.05377694517273
  O   1.71206052561197      2.58498861550405      1.10000645567913
  O   2.28547731244381      3.13379346698770     -1.25216292914163
  C   5.73947844935174      0.01577067229786     -0.09203515261309
  C   5.05651830528239     -1.19863622187518     -0.05724793482445
  N   5.83430458352414     -2.37267806480436     -0.03056338226072
  C   5.41317464233455     -3.64131948102126     -0.30846022421938
  N   6.09210402643827     -4.71684450473617     -0.23275215054932
  C   3.66514629811980     -1.22192996241737     -0.03041414552537
  H   6.71883159317714      2.29937285407935     -0.43387480533604
  H   4.84598365936859      3.76072394964829     -1.36900627833795
  H   5.89036428504349      4.46897738032637     -0.12177548508128
  H   3.48816451147983      4.81540907224362      0.46719760205111
  H   4.19791987698357      3.63563949119465      1.61671741533218
  H   6.82449035242965      0.02524655760607     -0.12248879344709
  H   6.81100477065595     -2.25910210564877      0.19486329004459
  H   4.38080529528545     -3.69506744186822     -0.64205834143655
  H   7.03965133377183     -4.53149423415956      0.10071177144184
  H   3.11070391297924     -2.15142779565315     -0.00850515878735
