24
Coordinates from ORCA-job 8373optt
  Br  1.64085556850620      0.09732814394730     -1.13400177045047
  C   3.32249485783231      0.09934492248549     -0.19610744299046
  C   4.06680861726604      1.28458730291291      0.02799159390619
  C   3.43703978015198      2.59918559455419      0.14225759331625
  N   2.19501075329785      2.83683936973076      0.41845386300759
  C   4.27553876191231      3.79659772751300     -0.10602396536798
  C   5.61221141711892      3.81827984582747      0.04653076727884
  S   6.55791467590727      2.46542323060214      0.51573882109851
  C   5.46499437797680      1.09997169782403      0.28700410690018
  C   6.07731826633922     -0.12345477727201      0.42388499492389
  C   5.29658420777424     -1.30843235564126      0.28617712770870
  C   5.58976507320056     -2.65286825753220      0.35247762646162
  N   4.44487878842728     -3.34646779781121      0.03533358196399
  C   3.41638094329904     -2.47182122624325     -0.23347347545190
  C   3.90615651493299     -1.18864017932639     -0.07581959903359
  C   3.62783331012567      5.01915373768292     -0.47220618207617
  C   3.13004297489190      6.06220006119436     -0.80123440422111
  H   1.70228443608759      1.96931534358048      0.60504309665264
  H   6.17553012722712      4.72965323779838     -0.10204282993871
  H   7.14245309057277     -0.18054227930998      0.61198679238102
  H   6.51165944721789     -3.16385019479622      0.57298872053293
  H   4.37171903043513     -4.34453105494955     -0.00867433612887
  H   2.43797116684234     -2.81646633249573     -0.51759924732383
  H   2.66155381265651      6.97219423972436     -1.08468543314928
