24
Coordinates from ORCA-job 8378optt
  Br  0.99142813271381     -0.06288920443803      0.19077477670718
  C   2.87312115714555     -0.22552869253021      0.22047590606029
  C   3.49745343300272     -1.39737792456971      0.39817647674207
  C   2.86964358266757     -2.76377363519459      0.47175937865693
  N   3.35606668002939     -3.64457030948131     -0.59246491343645
  C   4.55263174380153     -4.43896015835414     -0.39553166034756
  C   5.85620573514309     -3.65169134880904     -0.47107307895477
  S   5.94375879769749     -2.40762030453743      0.80614056243880
  O   7.26573027281403     -1.87164992081975      0.78750769311278
  O   5.42644693394408     -3.01796751291134      2.00269881670621
  N   4.90176278055533     -1.25757501518002      0.34214616209254
  N   5.40187918741967     -0.43741438187754     -0.80780850994079
  N   4.77322841273553      0.66722167153807     -0.90681592434190
  C   3.64313990223330      0.97657611082537     -0.19542950182375
  O   3.20865687500633      2.12609652267380     -0.08802368078464
  C   2.69103516048937     -3.68138313000501     -1.77408566622575
  O   1.68408601559021     -3.06854040176072     -2.03749013347167
  H   1.79462702249847     -2.65783612009203      0.34876174938543
  H   3.08702292885601     -3.24314201308577      1.42642775542366
  H   4.56995581077653     -5.21531802582853     -1.16189210100955
  H   4.49146012117168     -4.93036152418770      0.57763184178689
  H   5.96908247233492     -3.11634959508976     -1.41558543444863
  H   6.71316893989219     -4.30782742753469     -0.31190499260774
  H   3.16440790148111     -4.36911765874986     -2.49739552171957
