30
Coordinates from ORCA-job 8381optt
  Br  2.00638286263575     -0.32794932413897      1.63505835181074
  C   3.46585595561445      0.12806229021982      0.44479437693264
  C   3.89544530360306      1.40531402492926      0.27093363572826
  C   5.00625990918479      1.57584061115130     -0.60276187385154
  N   5.76878077396926      0.49449211938414     -1.00694900591333
  C   5.20119403455751     -0.66742220125606     -0.78455761045769
  N   4.03519202396664     -0.94950518284780     -0.17139000591724
  C   5.50964935488777      2.96374748752603     -0.35723068733380
  C   4.19172717358000      3.71241747194923     -0.15485571499605
  C   3.69206585055131      2.74641832752285      0.94852139094279
  C   2.33757178770431      3.03680969785514      1.56087139426218
  N   2.18519353112545      4.44447486727468      1.91937805036047
  C   0.92611514295260      4.71753484994712      2.54223476710806
  C   0.55838465568407      6.16910032963294      2.53929135729567
  O   1.13392873279460      7.02191113743811      1.92115856403935
  C   4.89615973373507      2.89334001893526      1.92213949738270
  N   6.07907035692620      3.05718365746528      1.04138662202726
  H   5.74299766633704     -1.54236334180365     -1.14259979075902
  H   6.21201421898251      3.36589723279077     -1.08417783555795
  H   3.56315045908065      3.70901366817825     -1.04504333446356
  H   4.34231939924437      4.72604846019569      0.22308381800572
  H   2.21440757107953      2.44478164152064      2.47095943045203
  H   1.54844018477494      2.70477629063557      0.86891236637876
  H   2.31641912491754      5.05202217150567      1.11874519757497
  H   0.92009715253408      4.37261627081545      3.58438801138280
  H   0.06519597929964      4.20255837588661      2.06759138124576
  H   -0.33587579282239      6.42191412714963      3.14446855518064
  H   4.97489082961617      2.01836884576446      2.57084192944971
  H   4.75295205666138      3.78534806625764      2.53698668808797
  H   6.69601396682161      2.26124800811485      1.15882047360170
