28
Coordinates from ORCA-job 8383optt
  Br  2.11264015626718     -0.23949968838854     -2.55961071349285
  C   3.15331502297446     -0.03790949599387     -0.22364788872772
  C   3.78735591622023      1.19459194670046     -0.14071429671407
  C   5.11612235028315      1.18726254142520      0.24876666758733
  N   5.79888371993513      0.09699035429024      0.58433052725624
  C   5.07681451008463     -1.02153787356092      0.50354474516490
  N   3.80878634999579     -1.13173065909240      0.12052976139764
  C   5.58261967755967      2.61990600279128      0.29749354354274
  C   4.88570724905569      3.23597546061764      1.53995762949346
  C   3.38953929006073      3.25046546427945      1.13548704178021
  C   3.39564472753075      2.65001458044888     -0.31519777224447
  C   4.73032437866079      3.22177112746519     -0.83771450721921
  C   2.12658484554394      3.02821555084705     -1.03454758673634
  N   1.98936424937292      4.03299876084887     -1.79815836681003
  N   1.01346197708520      2.28076746532731     -0.65144688144363
  C   -0.27011013635964      2.71966468497569     -0.81332668818666
  O   -1.24870929039946      2.06071868872029     -0.55442496477948
  H   5.58243183747196     -1.94210865289616      0.77937846940162
  H   6.65969660285413      2.75915598302949      0.25410083693402
  H   5.25250581401527      4.24891532672315      1.71371596437578
  H   5.07719364085408      2.64741719801849      2.43600941131127
  H   2.99497141379042      4.26755258639346      1.10329433144150
  H   2.75738966135491      2.65863336743326      1.79448222273600
  H   4.75574713181507      4.31483564358438     -0.83863678884757
  H   4.98078412145909      2.83166001134119     -1.82404243875223
  H   2.88271389137594      4.49927819914666     -1.92468614056817
  H   1.15334416814271      1.29050553523045     -0.45955007022605
  H   -0.31612327700498      3.75448989029369     -1.17438604767418
