27
Coordinates from ORCA-job 8387optt
  Br  1.34239578840359     -0.51393616939559     -0.70454972047113
  C   3.16105542967866     -0.11009837771207     -0.22417108109947
  C   3.57022059314183      1.23255270904066      0.09124669093888
  C   4.98641807558821      1.29141344610723      0.38210606028779
  N   5.75682915506004      0.22873468367730      0.45301907378526
  C   5.20732575797161     -0.96921807251653      0.20217294539533
  N   3.92657189844833     -1.15131052479723     -0.16348851249375
  C   5.70263280276378      2.60913671339415      0.59180949242401
  C   5.38609755892404      3.66096502127229     -0.48688697526989
  C   4.14268794396379      4.48401640605512     -0.11710335035125
  C   3.23070508381715      3.66932376612705      0.79459596224693
  N   3.90338413071544      3.45273292641255      2.08640834117533
  C   5.33834102954831      3.17099883212466      1.98166869017973
  C   6.15235410960525      4.36206914044643      2.29099945123842
  C   6.84164288376999      5.31524302271227      2.52739542557735
  C   2.73652835887594      2.39774224618752      0.07463923714312
  O   1.62726112623963      2.48891493410664     -0.48513529930227
  H   5.83991048087708     -1.84434590650191      0.25731871639395
  H   6.76569603950957      2.37048413916809      0.58130802315235
  H   5.23308657944143      3.14628887700405     -1.43687470851198
  H   6.24875380732155      4.31916366916689     -0.60557781061435
  H   3.58184290586589      4.76670305256516     -1.00837125524430
  H   4.43318875254852      5.40048833486347      0.40398657776711
  H   2.31702430901607      4.23352198058770      0.98665634141857
  H   3.45697622097137      2.67080111987425      2.54876752818516
  H   5.59376633363189      2.41453031455737      2.72737115571697
  H   7.43930284430092      6.16708371547244      2.74268900033210
