27
Coordinates from ORCA-job 8389optt
  Br  1.43893317095461     -0.39953373664422      0.83127871882050
  C   3.27995676595753     -0.31080719212350      0.27642478424245
  C   3.79321573809220      0.85665007259887     -0.22639265059639
  C   5.16666874288714      0.82980341291916     -0.61190404436520
  N   5.86090534846478     -0.35479148139140     -0.48662724061469
  C   5.22458742722848     -1.38412800093809      0.00562274080981
  N   3.95368245237125     -1.46377590765230      0.42814525531573
  C   6.06176918119597      2.01874207482052     -0.85937947976401
  C   5.47169873007447      3.25528707988796     -1.52703881636049
  N   5.06063201359344      4.18802114701820     -0.44225758823176
  C   5.33825457913736      3.59657559424405      0.86195155883401
  C   4.07914634873273      3.06597416357575      1.62626721068387
  N   2.90801769812380      2.87887403619143      0.79223901137865
  C   2.91582626012495      2.06159221800098     -0.32455053651333
  N   2.18908477326425      2.22994439033519     -1.36010957024435
  C   6.33282758339347      2.47954173140554      0.55839547336973
  O   7.11320318273084      2.02242884282528      1.37462284968754
  H   5.79464764629180     -2.30777761577516      0.08507913891690
  H   6.96417883829708      1.64501693475977     -1.34122828854255
  H   4.62569517929070      3.00582217758826     -2.16907217604068
  H   6.23828686674289      3.73557603312581     -2.13956864097077
  H   4.08434999878163      4.42146427502259     -0.54561079760422
  H   5.85020899597334      4.30358754916453      1.52036210156026
  H   3.79190520464802      3.76798130779281      2.40968582306343
  H   4.33412445632035      2.12297720176895      2.11456648801110
  H   2.32506423755824      3.69598421555406      0.68543992513516
  H   1.61912857976858      3.07396947592493     -1.27034124998070
