26
Coordinates from ORCA-job 8396optt
  Br  1.23427138237693     -1.06725775732770     -1.03474481631580
  C   3.09848209209106     -0.69012284153372     -0.57214454275572
  C   4.08772958105129     -0.57471385935869     -1.48925105411266
  C   5.34034936778548     -0.05918019002560     -0.86362964096390
  N   5.74671184395507     -0.45780564718800      0.27877850971380
  C   4.81092965510744     -1.42869032006009      0.78925619975227
  N   3.46020233840690     -0.94206208407483      0.72226528926787
  C   5.09720268176267     -2.74638337903941      0.41967849191198
  C   4.21236381019377     -3.82866324940537      0.36633776748373
  C   3.01165340990507     -3.85336846143966      1.28230630513238
  C   3.30509255251819     -3.30459763747349      2.65252542447760
  O   2.56415769677768     -2.61046408330466      3.29989423879995
  N   4.35657807444888     -4.88546452889527     -0.46327194108467
  C   4.71961441423736     -4.86923508487858     -1.74827749887375
  N   4.65282491271046     -3.93778524564365     -2.69130970228007
  C   4.04936485442453     -2.78488996611705     -2.30235530265966
  C   4.35221745364392     -1.49470518251008     -2.60647537165899
  H   5.95130966773329      0.64263280422871     -1.43101361142967
  H   3.01310493947566     -0.49784444112588      1.51280855411272
  H   6.06285147206756     -2.89012487191797     -0.05688141777610
  H   2.72647895603282     -4.90410837078678      1.40753793380992
  H   2.15484026084383     -3.31981885286713      0.85884864721799
  H   4.28332865698897     -3.61541857900021      3.06891960346054
  H   5.08742904132749     -5.83188275911026     -2.10475893329925
  H   3.27308025958728     -2.91084859094286     -1.55111362893253
  H   5.15083062454631     -1.26219682020170     -3.30192950299797
