28
Coordinates from ORCA-job 8397optt
  Br  4.94524625471681     -3.31840282651338      1.84151191731720
  C   5.33336065902503     -2.78586262768954      0.04694111764588
  C   5.32421528651220     -3.62742281801465     -0.98771276262726
  C   5.53083224171323     -2.98622307965096     -2.34825383538917
  N   6.51796406062541     -1.89040327915634     -2.31203775801262
  C   6.95372538987028     -1.59255718901071     -1.02057459731817
  N   5.86187936024434     -1.47999390173224     -0.09061287806716
  C   8.22683343716391     -1.63478562000123     -0.61339409772462
  C   9.30441040704460     -2.22194134765698     -1.47453927185315
  N   10.36980713385038     -1.54466379462524     -1.82940752549448
  C   9.06467530921447     -3.55728861020516     -1.92966874871144
  C   8.05473065158104     -4.36467232421909     -1.40286907315081
  C   7.41927731819649     -5.47222227293308     -2.02784848703974
  N   7.78147326642722     -6.18274747317871     -3.05488611428347
  N   6.16135767991165     -5.86184528866062     -1.47607511163725
  C   5.15191999627450     -5.10999477433594     -0.93670543092746
  N   4.10649297461037     -5.69497800678514     -0.47910045421478
  H   5.84698779073159     -3.73825192157199     -3.07084046629984
  H   4.56236165650022     -2.59574322552431     -2.68061566772479
  H   7.31415855422578     -2.10974449485808     -2.89887230038606
  H   5.16520400124546     -0.78929618687036     -0.35490561592903
  H   8.45662782936016     -1.29587817023372      0.38997563013832
  H   10.30054111757240     -0.59805586688588     -1.45980460006360
  H   9.67818921679517     -3.89123788959670     -2.76203489466423
  H   7.62990596405522     -4.06475044283271     -0.45827297603549
  H   8.71943067932821     -5.90272271769125     -3.33065361584273
  H   5.89956893252811     -6.81491233402434     -1.68597255324692
  H   3.44682283067560     -5.00040151554158     -0.14376982845711
