23
Coordinates from ORCA-job 8401optt
  Br  1.29079280147577     -0.36358045202374      0.86744434318794
  C   2.99486700897548     -0.04762156884193      0.00436597428416
  C   3.56297786900352      1.26401277691350      0.06643236745383
  C   4.92310056388066      1.38838893120200     -0.03436378906378
  N   5.77220718687233      0.36141760900516     -0.14010617962162
  C   5.13916337673127     -0.84834517219953     -0.09650881045249
  N   3.86343070027486     -1.09821294942846     -0.00360763639839
  C   5.46921280074827      2.80408730826791      0.00050826719278
  C   4.27769705868033      3.75370232775961     -0.19926519243686
  S   2.76829127784387      2.80430221781414      0.09104081936823
  O   1.88673198099566      2.98658561558593     -1.03862642901014
  O   2.24954245608230      3.13257441257990      1.39943275232568
  C   6.22553293950477      3.06285199120699      1.26841445359449
  C   7.47040484582221      3.59085651649864      1.41354750500567
  N   7.92148669662963      3.74702923084439      2.69768242680203
  C   7.01879637449882      3.33381793946426      3.53104797640356
  S   5.57418028798758      2.73570464466909      2.82396358842352
  H   5.79401300895413     -1.71402954528726     -0.14834576773336
  H   6.18394987166858      2.91453702979169     -0.81878898367664
  H   4.21161933471710      4.10826683986757     -1.22543712257421
  H   4.27091231037343      4.59569155964386      0.49006465709156
  H   8.10438381984729      3.87383182719698      0.58470873135454
  H   7.14470542843200      3.35113090946924      4.60439604847949
