20
Coordinates from ORCA-job 8402optt
  Br  1.66801646145082     -1.13823345703082      0.87261941488016
  C   3.43845161887791     -0.57363832603671      0.46881634582713
  C   3.73142056564570      0.78957629302124      0.19861972230589
  C   5.09517712354010      1.11551339336345     -0.04639616124274
  N   6.05588748909852      0.10050076722289      0.02263312296275
  C   5.61351335245053     -1.20105162173871      0.18547168421341
  N   4.37366626088098     -1.52221081354991      0.42945305614649
  C   5.16840318472469      2.46915522629251     -0.29878466201480
  N   3.91862279410528      3.01508293754658     -0.23362592449709
  C   3.06313415836724      2.01978500962958      0.06173972617922
  N   1.69898794869025      2.26479166085686      0.18455984423149
  C   1.32123010928145      3.44493604334556      0.00620395034909
  O   -0.01975755240792      3.77961471402061      0.10410149802942
  C   -0.19771571759608      5.09671678099417     -0.13203539178930
  N   0.77894226340422      5.84843858317848     -0.39438556849942
  S   2.22923410573341      4.91750605773602     -0.38712388247844
  H   6.97038899105079      0.25592341378704     -0.36401447790610
  H   6.36988898018629     -1.97315867494687      0.14114161903971
  H   6.03951249415600      3.06912953481616     -0.51820839259930
  H   -1.23100463164024      5.41462247749184     -0.07478552313757
