22
Coordinates from ORCA-job 8404optt
  Br  2.31871589733668      1.25881228727385      1.92931822899266
  C   3.75112759353531      0.65518943113782      0.80438879641544
  C   4.47094709965372      1.58917095343656      0.01195982885679
  C   5.44420349693341      1.04813119349116     -0.84246655059836
  N   5.75911761585489     -0.26477692772959     -0.70606197113647
  C   5.05666070798702     -1.09083125123696      0.17805788739041
  N   4.01115169589772     -0.61035272969781      0.87813942818957
  C   5.43682254107615     -2.43723478693748      0.26909456037182
  N   5.78681037191437     -3.54093164445907      0.31042375754395
  C   6.16467714504445      1.92551084275325     -1.69759861401168
  C   7.36348985494881      2.28887574275175     -0.93709158463505
  O   8.46770718059895      1.78735246610428     -0.90824896736646
  N   7.07814418486626      3.33624268853764     -0.02774198101494
  C   5.84859676343568      3.73583794464498      0.51874971240178
  N   5.77711775720471      4.64413828946440      1.40648038699674
  C   4.50535780450597      3.06558283235340      0.15546895466389
  N   3.50723303746720      3.84796871480623      0.10733594621174
  H   6.46593420720529     -0.64448370938176     -1.31951136332477
  H   5.56990811518433      2.81987637343468     -1.85566884856952
  H   7.88770144180214      3.64172712921895      0.49837185280426
  H   6.70011413190089      5.03665608121217      1.59666114877351
  H   2.66246135564594      3.30553807882154     -0.07306060895530
