25
Coordinates from ORCA-job 8405optt
  Br  5.40162278007823      0.03284664730360     -5.50516563200374
  C   5.96435996163769      1.05147986589135     -3.97929113860527
  C   5.95515381317410      2.40424606585605     -4.00248691340071
  C   6.21252647241501      2.98823953018974     -2.63590014066549
  N   7.30292102774649      2.23173942368842     -2.00799421805286
  C   7.41228592443243      0.92972860311778     -2.28905580509707
  N   6.51558582079854      0.28281090853401     -3.00033306669506
  C   8.75861100677241      0.31587864477660     -1.94368637337663
  N   9.03232313908345     -0.39504645992492     -0.89129809868989
  C   9.67621044483935      0.73830604288597     -2.95512863895811
  N   9.09065031926522      1.30447034613302     -4.00984249235890
  C   9.52357149166271      2.27412434514337     -4.82641978049027
  N   10.56974274645004      3.02821675967129     -4.82586556554618
  N   8.47561509397210      2.56315380579543     -5.78847624728618
  C   7.74153032656389      3.72266068793460     -5.55196027182395
  N   8.19114808565962      4.89163987368042     -5.39013421457409
  S   5.93615532196729      3.46312252220333     -5.40983243633741
  H   6.50278814258956      4.03451122892877     -2.70218680173787
  H   5.32643678054175      2.90531276355805     -1.99728323867595
  H   8.17116423394527      2.70810096523675     -1.80492485295489
  H   8.19445937917176     -0.51591681832898     -0.32584460206627
  H   10.74784813039839      0.57519337839940     -2.82749476598397
  H   11.16371779124777      2.76232402213488     -4.04198687995049
  H   7.86712268087960      1.75515762365149     -5.82671051676947
  H   9.20944908470704      4.86069922353948     -5.50369730789907
