23
Coordinates from ORCA-job 8409optt
  Br  1.05370743213141      0.34462094008331      1.06625155294139
  C   2.95161209596383      0.24596072919647      0.73528198377311
  C   3.56659093145856      1.15467333227043     -0.11429987963988
  C   5.02045433037957      1.09186310575302     -0.13330637477300
  N   5.61757304216149      0.00538748193887      0.46227299955573
  C   4.88420207947764     -0.79102551975096      1.16758542330853
  N   3.55161186887233     -0.68941660565476      1.43020228519505
  C   5.92057400122259      2.04316989313467     -0.72752096396308
  O   7.12480464129153      1.81952128112620     -0.90581208275593
  C   5.43435151631786      3.44380981826602     -1.09023141149698
  C   4.10874612104840      3.85232364592743     -0.48766104869921
  C   3.86882093230113      5.36106292451629     -0.51966312794398
  C   4.02135565604189      5.95100132729683     -1.85034540242909
  N   4.15261404648241      6.44639546043057     -2.87532608931310
  O   3.03167788237452      3.27615449420552     -1.20847053371304
  C   2.73997011886352      1.95792100165416     -1.05038480916580
  O   1.82058331700342      1.52068788583189     -1.68254157580579
  H   5.37739794530425     -1.63953129733889      1.63442577602511
  H   5.37647205703890      3.55714794633115     -2.17723568513062
  H   6.22429738384765      4.11662370834246     -0.74582277946556
  H   4.05335185591492      3.54078786059289      0.55996534877606
  H   4.57962368584127      5.85140573812818      0.14710137079383
  H   2.85960705866075      5.57445484771815     -0.16546497607375
