20
Coordinates from ORCA-job 8412optt
  Br  1.13000428918877      0.17349111041297      0.26211889489021
  C   3.04495608991276      0.10606382450648      0.18325086828658
  C   3.74749296819079      1.24435640885151     -0.01895254109231
  C   5.15748595545793      1.15113294751628     -0.03343015309110
  N   5.78828842596124     -0.05017891828997      0.14107764419415
  C   4.97637303607732     -1.06370203885663      0.30838458995279
  N   3.62074407040111     -1.08882188145227      0.34743818149814
  C   5.71577037934855      2.44223375664768     -0.23128781598721
  O   6.82887869696376      2.89697550357451     -0.30670966576079
  O   4.59153505129253      3.34431060679420     -0.36811446101523
  C   3.39301493619787      2.68234556439609     -0.19554205490179
  O   2.69877028814324      3.20662348757356      0.96285310893648
  C   1.52692892410320      3.76812599332126      0.61604995615281
  N   0.67012085752758      4.28376169359789      1.38023521818319
  N   1.39349209823374      3.69267897920444     -0.75997595894554
  C   2.42621916620626      3.01834387881377     -1.35057453449789
  O   2.56507826791125      2.76490155619918     -2.51218564497589
  H   5.44314828984632     -2.03629806493052      0.44081627853757
  H   0.98582914061338      4.21524633401308      2.34339634493944
  H   0.56486906842236      4.01040925810646     -1.23384825530360
