22
Coordinates from ORCA-job 8414optt
  Br  2.04252732111153     -3.09022103205770     -1.62117471811568
  C   3.91418783363773     -3.11754865229022     -1.02881288972155
  C   5.03536549871329     -2.80914673590174     -1.89881895151400
  C   5.55149391422008     -1.47366844689993     -1.62399439156870
  N   5.56081384223257     -0.98341394900289     -0.42316216181978
  C   5.19530371947809     -1.89875102529716      0.55197180272180
  N   4.09507002797749     -2.67670372127994      0.26476443401303
  C   6.01398232651818     -2.13083702133794      1.62644461270823
  S   6.29084889595205     -3.78888136330311      2.13553532586626
  C   6.88635369930249     -4.35069148458135      0.53128089925881
  N   6.72375825949984     -5.49308263022523      0.03001254365787
  C   6.95466161630366     -5.64563867909234     -1.38033129321315
  O   7.93845285798880     -6.14948697022472     -1.83826577351220
  C   5.74804246600047     -5.04293384338810     -2.05890478876598
  N   5.92889156945284     -3.74707714830802     -2.24021630907817
  C   4.50951603792418     -5.69436529262068     -1.81017865497012
  C   3.49391555872506     -6.33849161763915     -1.70073065086159
  H   5.99424484384238     -0.86388410554825     -2.41004996997877
  H   3.68064371297101     -3.20769445692111      1.02135302571022
  H   6.78673718231544     -1.40191305105864      1.82521280695324
  H   7.30012657750394     -3.50746573589168     -0.02891647367739
  H   2.58506223832870     -6.87410303713003     -1.57901842409235
