23
Coordinates from ORCA-job 8416optt
  Br  2.05405078264400      1.26517670713911     -2.27391775954051
  C   3.41770599327522      0.58791342942397     -1.10501875309690
  C   3.31669262679800     -0.75894710067409     -0.60082343287033
  C   4.54852256164714     -1.17966150627850      0.04257785250850
  N   5.53441089199658     -0.38559620381878      0.30309470271891
  C   5.40765440414262      0.91551119762505     -0.08064888164600
  N   4.39088365882035      1.38414803649696     -0.84324552897978
  N   4.66185949137776     -2.51942350845504      0.42801719465838
  C   3.71791918927873     -3.58842407612848      0.11352450571211
  C   4.34579342696536     -4.40225762596036      1.26780938620143
  C   5.22486691695492     -3.17405805352169      1.50816219876155
  N   6.09829278592917     -2.81697100742665      2.34810706660010
  C   2.29494232514107     -3.11392732519775      0.27308502134224
  S   1.99463915850460     -1.80319809398968     -0.91213667708973
  O   0.71689842926033     -1.21212398789215     -0.57415490656849
  O   2.06604336496331     -2.44190083408762     -2.21652969326444
  H   6.21866772810012      1.58993295110154      0.14681291286410
  H   3.86478050031627     -4.00647078496420     -0.88438524392037
  H   4.88243242851028     -5.30200219372030      0.97227977412020
  H   3.66431245465721     -4.61864504228239      2.08992507353764
  H   6.24098364401755     -3.57007854607900      3.01726613767256
  H   2.11067092198165     -2.71182528332101      1.27011425748434
  H   1.55897631471769     -3.87917114798889      0.02408479279450
