19
Coordinates from ORCA-job 8417optt
  Br  1.37713890203514     -0.40245136430300     -1.20249075362853
  C   2.95461205237620     -0.15453928292415     -0.11747988420890
  C   3.63838393062674      1.10800847727105     -0.07042707736200
  C   5.03521806382481      1.06493422669953     -0.05243171868781
  N   5.70178172120609     -0.14112581455223      0.03923918427273
  C   4.94934450767067     -1.28759423681444      0.10534985655839
  N   3.66881613032328     -1.31313709895950     -0.00449066407315
  N   5.65794726994692      2.25292892193943     -0.09898106699189
  C   4.64403652948843      3.12553245481099     -0.13525159519094
  C   3.36111506857239      2.52318792975710     -0.07136653323955
  C   2.21348717298256      3.31830053480508      0.13835154816989
  Br  0.66263555683540      2.41058669046007      0.73331833125139
  C   2.17652201099443      4.68930702458819      0.03459622634218
  Br  0.57936281590793      5.67969373466679      0.28454839147877
  C   3.31572767934513      5.54653042817797     -0.24108530628218
  O   3.26988288152390      6.75107507083908     -0.40196687848884
  S   4.93517644491026      4.81827922100051     -0.26060946071061
  H   6.70284607282432     -0.14873136106984      0.12811393481022
  H   5.49896518860532     -2.21178555639266      0.23906346598085
