24
Coordinates from ORCA-job 8418optt
  Br  5.58209234104239     -2.84912453615808     -3.09289535689046
  C   6.14078827980406     -2.93181383929343     -1.24071606907875
  C   6.09871244298519     -4.16541072571428     -0.55083394422761
  C   5.96889317316219     -3.86219292970035      0.92147533611551
  N   6.99242414406751     -2.82796336848968      1.30598539485726
  C   7.50296057423854     -2.11886216335686      0.29054335275926
  N   6.65605843717436     -1.83914305253439     -0.75349805133470
  N   8.80576827723172     -1.87174726329174      0.11812991118181
  C   9.55813352928383     -2.98437626253366      0.14900038399974
  O   10.60253425635142     -3.01378978309457     -0.72973487950186
  C   10.92899959460420     -4.40410178462724     -0.99666410727719
  C   9.87642599701041     -5.18963901330530     -0.26479275781450
  C   9.33418152010849     -4.26455893116943      0.65456459344417
  C   9.04723043107179     -6.23118040048014     -0.85555073773024
  O   9.41853918394337     -7.02963794585389     -1.70397517670081
  C   7.60462427585193     -5.99022447749876     -0.38735940983749
  N   6.96005871822239     -5.11354906350046     -1.06041536089692
  H   4.98250591603058     -3.46770396417746      1.16745871871552
  H   6.15047949154080     -4.73970724639917      1.54211653136467
  H   7.65202559177812     -3.05838134028147      2.03321381203313
  H   11.94596296162923     -4.58181202957170     -0.63332629747403
  H   10.89785237378708     -4.55797407805073     -2.07535389276192
  H   8.58543104921749     -4.53159094934862      1.37004171475850
  H   7.39431743986265     -6.20751485156851      0.66958629229692
