22
Coordinates from ORCA-job 8428optt
  Br  1.41845192763908     -2.62157115164273      1.77467517819231
  C   2.91844814897591     -1.52931681948179      0.22501015779015
  C   3.95904323057924     -2.16964861213481     -0.39403609529676
  C   5.26729803313595     -1.53780242156589     -0.46884290953131
  N   5.43371289501241     -0.32638475598936      0.21251511154364
  C   4.41969287817308      0.20873927475956      0.77508370375937
  N   3.16326764826124     -0.31215807771574      0.76951835930131
  N   6.29530251657718     -1.94002046232246     -1.14601707655078
  C   6.33714332126928     -3.14662100182347     -1.80202309753677
  O   6.74008785969969     -3.28534618637918     -2.93122019813264
  N   6.03765445002462     -4.30239783805176     -1.02155992977407
  C   4.85199736711332     -4.48020582806863     -0.62077726703619
  N   4.55497883748320     -5.63936653846691      0.09241214814817
  C   3.47221236313969     -5.86941804752147      0.90875222783338
  O   3.36258588794511     -6.89090787490222      1.54221609103443
  C   3.72156879147440     -3.52983195516008     -0.90133442650237
  N   2.64182317427603     -3.87241314073175     -1.47294932362320
  H   4.53442340996336      1.14982462964322      1.30722243110774
  H   2.42868211181715      0.11882342898434      1.31193431581647
  H   5.30341890947560     -6.31939193914966      0.13985148859943
  H   2.73917397218406     -5.05145791853942      0.93686900131496
  H   2.63703226578028     -4.87512676373971     -1.66729989045730
