25
Coordinates from ORCA-job 8431optt
  Br  0.87578492219332      0.13129500163707     -0.47895867320958
  C   2.75892271925118     -0.00446762269304     -0.21254591843014
  C   3.42643786314047     -1.17122210470331      0.05295447449794
  C   2.72079745617855     -2.50449255868009      0.01044818336972
  N   3.32948252772295     -3.55265244241597     -0.81604753251230
  C   4.41449577639409     -4.04826659418637     -0.41861536017949
  N   5.15926743953521     -3.53977694510952      0.65947924197524
  C   5.72015802448952     -2.18215508473616      0.60279693926571
  C   6.47074156853118     -2.19752012593993      1.93203360083363
  O   6.86510947991413     -3.57189554347803      2.08879746753867
  C   6.03416673638057     -4.35041653994999      1.35156377661182
  N   6.05156062056548     -5.61436882677958      1.30504009543956
  C   4.77903446017191     -1.03938788157353      0.42133272536395
  C   5.37588963542150      0.24448573495354      0.47535191019301
  C   4.66492333004022      1.42101603125651      0.21396707028380
  O   5.02769590684005      2.58114149599611      0.23393964608662
  O   3.28900631904058      1.23817816080331     -0.13074719755554
  H   1.71174444251637     -2.36228533151555     -0.36072912757667
  H   2.65104742330560     -2.89407589233001      1.03337985052654
  H   4.84267368934409     -4.92611561919297     -0.89880881082869
  H   6.47226027207471     -2.16402152868972     -0.20727180412188
  H   5.80461704041479     -1.91467458120275      2.74942510758952
  H   7.36539922519609     -1.58128791119645      1.93686489184136
  H   6.77431063308049     -5.96925114060869      1.92332654507419
  H   6.42347248825688      0.37121785033517      0.71302289792300
