21
Coordinates from ORCA-job 8432optt
  Br  1.16054585313074      0.14267699364504      0.07064577283699
  C   3.05046509491085     -0.06734006189608      0.06486923546403
  C   3.63484683535957     -1.33167497124396      0.06160950267318
  C   3.28620012455042     -2.69411717109389      0.06091175947350
  N   4.37805170691389     -3.46096327224243      0.05798693344910
  C   5.45337658535514     -2.62453600678385      0.05681941249069
  N   6.76281993709887     -3.14798679536753      0.05496706263009
  C   7.92945895661547     -2.44404037471675      0.04829810066376
  N   8.97955508275102     -3.22569445509925      0.05011659220704
  C   8.47115642742991     -4.50291468689660      0.05854917552794
  C   7.09534205785394     -4.46786870142168      0.06144517910857
  C   9.29846425456447     -5.66020958479098      0.06331183177273
  C   9.98836968906238     -6.64411455955393      0.06801589760513
  C   5.06112261032637     -1.30824403778655      0.05886345722932
  O   5.77372191577283     -0.16553937743259      0.05912970558087
  N   5.03874719191888      1.09961941078936      0.06188199235138
  N   3.76342234279503      1.03522941507034      0.06463684012828
  H   2.29324596435939     -3.11690188841179      0.06231581755641
  H   7.93115876081123     -1.36596295379164      0.04250309997832
  H   6.34141423095460     -5.23328180799059      0.06805786775072
  H   10.60351437746491     -7.51013511298463      0.07206476352193
