23
Coordinates from ORCA-job 8434optt
  Br  0.61758570670224      0.66330080940173     -0.11943223848394
  C   3.03584156862476     -0.25285782705873     -0.05535531823477
  C   3.79518792119855     -1.40289017331716     -0.22816728781436
  C   3.56746162252211     -2.73454501828708     -0.61386880677576
  N   4.70894603795812     -3.43048896733340     -0.61716501365081
  C   5.68714438152702     -2.58810351093700     -0.23037776760910
  N   7.02964568426012     -3.03773219102737     -0.14096601945660
  C   7.49374270898479     -3.97120796430662      0.76309978037352
  O   6.89276624318655     -4.50361950987739      1.65351957223845
  C   8.96533163120852     -4.19921146836558      0.43122330093129
  N   9.15652033688947     -3.37386535232344     -0.73484568321933
  C   8.04466990699706     -2.61213401714038     -1.01462057758112
  O   7.96130631974914     -1.74384052671946     -1.83995557501684
  C   5.21170263325442     -1.31311729525486      0.02571134046122
  C   5.74262234964746     -0.06362073445798      0.41169998242312
  N   5.00903003411947      0.99893017439518      0.56322333823309
  N   3.67703712170940      0.83702339230464      0.32102239219357
  H   2.62535352935160     -3.18571049419810     -0.88499922051771
  H   9.13202567132624     -5.25999125786675      0.23922842585380
  H   9.56973646754711     -3.89328404555907      1.28793536945365
  H   10.05040683302559     -3.02771173164561     -1.03601602072769
  H   6.80213469936972      0.07888002575770      0.59431060063111
  H   3.12780059084028      1.67679768381684      0.45179542629520
