21
Coordinates from ORCA-job 8437optt
  Br  2.29011389147082      2.00435511220995     -0.29176458685272
  C   3.76725669319957      0.83496608727720     -0.12575533425148
  C   5.00748769161388      1.34518257348992      0.24348256231238
  C   6.13857596149315      0.48435606857298      0.26512854508656
  N   5.88681799200026     -0.85210584389903      0.05069110823474
  C   4.68227717529517     -1.46272154100974     -0.25734415681979
  N   4.54078882357714     -2.72096813782562     -0.41466856267113
  C   3.50568349847156     -0.53674773752333     -0.44008333726870
  O   2.42157538984499     -0.97449099639588     -0.82107060756501
  N   7.38929388221020      0.78091532470640      0.52337330735319
  C   7.86657290482123      2.05731716829553      0.35983863696832
  N   8.71574776641079      2.65160064272118      1.09661964149265
  N   7.49627551198829      2.69869186126203     -0.86531925983026
  C   6.48298240794656      3.42208394654656     -0.91971355265345
  O   5.64180965542315      3.71929251567479      0.12269805514663
  C   5.08557933956419      2.70798256962939      0.86708226342913
  O   4.62615460742897      2.97966558841510      1.92975850369205
  H   6.71509359927348     -1.42938609060083      0.08810553777960
  H   5.42506887602094     -3.20587413275342     -0.26049838391014
  H   8.90975542634989      2.04821461024610      1.89389670493693
  H   6.20108890559567      3.94967041096068     -1.82545708460950
