22
Coordinates from ORCA-job 8442optt
  Br  -0.55694425080813      1.92032987096468      3.49434094618583
  C   -0.42635615262072      3.71050020823738      2.90584977967235
  C   0.77362404268100      4.17431250487105      2.31913988028788
  C   0.85968666810695      5.51302886448182      1.90612424603788
  N   2.10477307568169      5.72235819025203      1.26799586367754
  C   2.88638661188572      4.59225242699205      1.36313986860626
  N   4.10784489244957      4.41375317996071      1.06759809833095
  C   2.00569318953671      3.45315272887498      1.90394427749717
  N   1.82483644954860      2.41406266576778      0.85555624860378
  C   2.32345495544578      1.36484658530831      1.32752995038718
  O   2.89577635499614      1.39444178421438      2.57411808714766
  C   2.74442619175509      2.69300478049551      3.01785166551725
  O   3.15279536832383      3.05810449318690      4.06727700374274
  C   -0.15355130868261      6.39134088116062      2.08815622416671
  N   -1.29704389358040      5.90876728019472      2.73665729973997
  C   -1.52346631569409      4.57559802275014      3.13948333801301
  O   -2.62024673447561      4.30397487795373      3.64277888225410
  H   2.54118172321228      6.62978697602105      1.26048332307368
  H   4.53517335718837      5.26653287688081      0.71030903352891
  H   2.34931276913618      0.39410405291399      0.84970380182284
  H   -0.14530820960518      7.42551082061072      1.78089100301946
  H   -2.10104878448120      6.49923592790654      2.85907117868680
