20
Coordinates from ORCA-job 8447optt
  Br  1.19783682146429     -0.30998256865675     -0.34149389989822
  C   3.11218607585156     -0.05935723261027     -0.18072101210067
  C   3.58989754689206      1.20700718950990      0.00598584030231
  C   2.75353011770879      2.44481228026523      0.16437329549300
  N   3.54822799078161      3.60515122147257     -0.24120200275247
  C   4.86444778441941      3.65589168184497      0.24842636591215
  N   5.60591416218846      2.57461316924912      0.36951867158960
  C   5.01599071121767      1.38967794222064      0.16064838334234
  C   5.74512899049290      0.17071956061136      0.13436647082262
  S   7.46457560247873     -0.07040525449748      0.29762888927042
  C   7.23202494664145     -1.81582102842194      0.07072765561373
  N   8.10358451773825     -2.73207295679423      0.06109448392937
  O   5.92893696149221     -2.12161046335333     -0.10575932045644
  C   5.10295066046690     -1.01426795732604     -0.07225419411219
  N   3.80094020054899     -1.20560628823386     -0.24863127453241
  H   2.42409667219748      2.52774120032538      1.21238019477792
  H   1.86087735499828      2.39475715447500     -0.45780858241933
  H   3.05221229755847      4.47379668545819     -0.11205528862846
  H   5.31152159081235      4.63585613916494      0.34607191413603
  H   9.02811899404994     -2.33990047470342      0.20570340971069
