22
Coordinates from ORCA-job 8450optt
  Br  1.06895635479507      0.02187766760449     -0.82648581729342
  C   2.88887951750173     -0.03568475810151     -0.21290315424309
  C   3.54122464184357      1.21795449087350     -0.13793853950523
  C   2.94542748137630      2.48630036349434     -0.22689622729696
  N   3.64178920533865      3.63185416130436     -0.13318602526538
  C   4.94669649446977      3.50888566491229      0.04395496658042
  N   5.65239878483585      2.38530062496261      0.12610832813963
  C   4.96606932637951      1.22683860368457      0.03260722253378
  C   5.65245051328275      0.00383557860829      0.04876959731179
  C   4.96702703355702     -1.20497722709744     -0.00818370711153
  C   3.55985900613212     -1.28093817938260     -0.07452734028614
  C   2.87318721605720     -2.56992806703757      0.12066725084934
  N   1.68138239084729     -2.75362150317257      0.57545206017990
  C   3.60672690931744     -3.79602969274780     -0.21177905205567
  C   4.93424641649009     -3.91285526721266     -0.24928390612662
  S   6.02389997699595     -2.60688416526539      0.03571844316002
  H   1.87892885318299      2.57984294583068     -0.38062278058149
  H   5.51245222026691      4.43377825496660      0.12256461620204
  H   6.73257847352036      0.02778658903911      0.11180795737928
  H   1.24128940705425     -1.87179739526644      0.81838230567042
  H   2.98561075751236     -4.67261014174253     -0.34935951935404
  H   5.42291901924276     -4.85992854825432     -0.43786667888703
