24
Coordinates from ORCA-job 8455optt
  Br  1.05496241067836      0.01123265191313      0.05894357539362
  C   2.96843675250732      0.00368530266775      0.07844879205776
  C   3.62674400443070      1.24339004288787      0.08050621400558
  C   2.89052900716824      2.56536146618739      0.07504357918063
  N   3.72711723077011      3.76184231730969      0.07927358740973
  C   4.98828691938035      3.62635173309668      0.08641417480998
  N   5.68070793828835      2.45168917260549      0.09122426910010
  C   5.00483893149266      1.23058385655701      0.08888176805011
  C   5.74827830955721      0.02430822895689      0.09529244494870
  C   7.15611167332832      0.11640647584848      0.10196097508168
  N   8.29370475429154      0.32887504841309      0.10683942369581
  C   5.07684559860376     -1.23666846032467      0.09585444462401
  C   3.63291693323072     -1.24414267392115      0.08750831924567
  C   3.01229803988244     -2.50404601491289      0.08979081624084
  C   3.79231250423760     -3.65785960469710      0.09904743828381
  C   5.16801930760982     -3.53639840083772      0.10538616783935
  N   5.80320529090781     -2.35813016986369      0.10389685201850
  H   2.21849322231966      2.61707036237807      0.93954761265390
  H   2.22881238796355      2.61591822656376     -0.79739624466025
  H   5.61657146399731      4.51499428133555      0.08915514941986
  H   6.68820968035197      2.44638593481779      0.09705583788468
  H   1.93338954441322     -2.56792586123693      0.08450700904039
  H   3.33135617715862     -4.63753025868431      0.10115790549178
  H   5.80085191743031     -4.41839365706019      0.11165988818378
