23
Coordinates from ORCA-job 8458optt
  Br  1.08891601630381      0.28066230593923      0.56304936634512
  C   2.94424614295151      0.02327778134886      0.31525190710250
  C   3.52880509667354     -1.17969706835510      0.27054286987820
  C   2.96041077349181     -2.56603910918272      0.37616946984631
  N   4.16793745259809     -3.39377010329409      0.49813007911337
  C   5.32912821087042     -2.63262004309819      0.14167907499389
  N   6.50629459468064     -3.12334989189508     -0.03480413251755
  C   4.93379316165872     -1.25697271023872      0.07525353221783
  C   5.66606004559876     -0.07955913505793     -0.08799806472850
  C   5.01476411209985      1.18295519873332     -0.05131372302042
  N   5.47890994818142      2.37141489407225     -0.18805260945060
  O   3.61725570197328      1.18927982036422      0.18329855112669
  C   2.16270270900914     -2.92818254656465     -0.83708857492838
  C   1.88258599405880     -2.30534080737024     -2.00399517492651
  N   1.11389112842357     -3.17379798771560     -2.73896101291768
  N   0.92612859828275     -4.23373732033451     -2.10434120890795
  O   1.57797101272384     -4.12715289853683     -0.87638643801958
  H   2.31525396305103     -2.68471572610690      1.25234448001871
  H   4.11109247887000     -4.29509513026796      0.04297686050903
  H   6.49833842289746     -4.13044600734721      0.11521903408082
  H   6.73507245676154     -0.09789682933297     -0.24005634327987
  H   6.47911930776535      2.30238103847326     -0.35228204050368
  H   2.16232267107463     -1.32659772423241     -2.34763590203174
