26
Coordinates from ORCA-job 8460optt
  Br  0.99252836691085     -0.42545929193274     -0.13868053588848
  C   2.86032824824610     -0.17111026062999     -0.31933346854993
  C   3.76468347633895     -1.11958004621858     -0.02258888344097
  C   3.58657537379002     -2.52943945998394      0.45727212869494
  N   4.94807667104560     -3.06235356693706      0.38604437940829
  C   5.88621008556929     -2.01413793049482      0.16117974804811
  N   7.17129621907055     -2.16853049295621      0.21478151332351
  C   5.14733956507602     -0.82436412601630     -0.15404523845282
  C   5.58835142986199      0.46024471773694     -0.55976707551770
  C   7.02760903195677      0.79001077871657     -0.65414725301952
  O   7.60789329873058      0.96623252951904      0.66354801563499
  C   8.92683588219568      0.52339463880736      0.69023236881298
  C   9.51754361167274      0.78905761008038      2.01000674495856
  N   10.02973881726891      0.98046478103899      3.01757263962312
  C   4.62974673588653      1.46424383976395     -0.87201906462400
  O   4.83752434555540      2.61818832659335     -1.26151501879670
  N   3.27051525508812      1.07936402670886     -0.73710954084917
  H   2.90183987048098     -3.09754788210063     -0.17820190730898
  H   3.19062052654891     -2.55241700594725      1.47897297843525
  H   5.21134872648131     -3.67547214233739      1.14368305648260
  H   7.39379060337411     -3.14003396108379      0.42382535379654
  H   7.16148215547703      1.72053349183090     -1.21068108653597
  H   7.56754811822030     -0.02531876171594     -1.14437333007829
  H   9.55152367069244      1.04346654432193     -0.05046282555163
  H   8.97095192639664     -0.55643355860521      0.49931061282336
  H   2.60209798806408      1.78399720184159     -0.99950431142809
