21
Coordinates from ORCA-job 8471optt
  Br  1.49268183744486     -0.51749764003962     -1.31253295118544
  C   3.14253954264459     -0.17770314217688     -0.47321097513985
  C   3.66218558401140      1.07791717332774     -0.18590559021390
  C   5.11533217752057      1.10660515831739     -0.01289440811335
  N   5.74566810661760      2.29782277357693      0.02194855171305
  C   5.00561736707146      3.39163899158557     -0.03513890671993
  N   3.67928529078840      3.48280145050748     -0.04149754255413
  C   3.02616491327895      2.32401210890548     -0.07745043951125
  N   1.61433983711148      2.43955748243820      0.03217985054981
  C   0.76179259499933      1.76077083382203      0.84890466702801
  N   -0.44407884780196      2.23970804029086      0.75745212258410
  N   -0.40502201885618      3.27112693823366     -0.14824739886460
  C   0.82565030244993      3.37948947345012     -0.55610122316223
  N   5.82778652954271      0.00053353553776      0.08355940989129
  C   5.22718331238416     -1.20907659339545      0.01470930574450
  N   5.73922243251372     -2.34863928892124      0.24593590489122
  O   3.88476417065283     -1.29169476618259     -0.40414632432445
  H   5.54352305235010      4.33490257178171     -0.05159239035625
  H   1.07720339060815      0.93950363610679      1.47082249830313
  H   1.21430021288187      4.10072868629284     -1.25377983457504
  H   6.70586021178596     -2.18650742345879      0.51398567401532
