25
Coordinates from ORCA-job 8476opt
  Br  1.23289216274882     -0.36570816402605     -0.02853220505395
  C   3.10950769360803     -0.05589175757423      0.09015823859601
  C   3.64559593602129      1.16234357404749      0.07528052032653
  C   2.88799728495534      2.44348406628948     -0.08434381882053
  N   3.67386412646082      3.51667446699642      0.50883565120548
  C   5.03890367970061      3.51147296915382      0.19115887589448
  N   5.73129367582116      2.38601556102465      0.05098461097172
  C   5.10683937499681      1.20865151537095      0.08960191512642
  N   5.81949143208352      0.06949042116560      0.07749771406092
  C   5.22018678316031     -1.12319417253628      0.11122632254374
  N   5.73741577223432     -2.29248021064955      0.11923493341616
  O   3.78792498991308     -1.19608849228073      0.15435274869516
  C   5.73407553757562      4.75653257228336      0.12807497045146
  C   5.33607657054684      6.08815873028309      0.24150282759121
  C   6.49444023327152      6.88926321598594      0.07823479252486
  C   7.55982591505804      6.04522148595067     -0.12522411797159
  N   7.08653450455715      4.76392250583412     -0.09007895915443
  H   1.92377608809088      2.38574280801888      0.42076517479637
  H   2.69456763956656      2.62038886423380     -1.15464834229875
  H   3.25272586843997      4.42580944886594      0.38801316421024
  H   6.74461832063988     -2.16174828144668      0.10017623677677
  H   4.33500990385126      6.44194705539769      0.42894750910867
  H   6.54500293908847      7.96577508422697      0.10792891141487
  H   8.60253069886099      6.25481033611584     -0.29170152271277
  H   7.58990286874790      3.89740639726839     -0.20044615169900
