24
Coordinates from ORCA-job 8478optt
  Br  1.10532612371139     -0.50067696040411      0.08994246880421
  C   2.98634200128562     -0.30660797489209     -0.00131163679319
  C   3.84580771382095     -1.34157980548503     -0.02017751052176
  C   3.62345362808293     -2.81430947734887     -0.00693929751400
  N   4.98487646305086     -3.32984886515385      0.01947601523355
  C   5.97828667718043     -2.28632008042033     -0.03153377330506
  N   7.24845536232403     -2.42874189843554     -0.05059297587572
  C   5.22919324509999     -1.04396052463943     -0.04847851953012
  N   5.75808008026135      0.19663067780234     -0.09601569528923
  C   4.91040438909986      1.23708732167496     -0.09952868342181
  O   5.20330318802877      2.42330166229199     -0.19603924125108
  N   3.49689237657630      0.97039266172186      0.03409873750533
  C   5.13646682021376     -4.67418245313318     -0.01784264291656
  C   4.19628906000378     -5.67152593652346     -0.09403903621661
  C   4.93450466230578     -6.89748511531745     -0.07933681065797
  C   6.23956179040685     -6.57056917399717      0.00175779484231
  O   6.37629182072820     -5.20741061541731      0.04339592348486
  H   3.09502581902097     -3.16782349135235     -0.90082327209482
  H   3.06325466403113     -3.15775691570887      0.87026876161628
  H   7.51480956994475     -3.40535765470883     -0.02260440956766
  H   2.90669704802273      1.76775048566291     -0.13381398359502
  H   3.13086936551478     -5.54167838004845     -0.15588198185755
  H   4.53556253524604     -7.89698770730431     -0.12831209341833
  H   7.15424559603860     -7.13333977886330      0.03533186233995
