22
Coordinates from ORCA-job 8481optt
  Br  0.74542161072190     -0.30288960652032     -0.12394163975348
  C   2.62876504125531     -0.10206193199625     -0.02128810395780
  C   3.47844923652412     -1.21425980158486     -0.00937700264733
  C   3.03466051261384     -2.54513630165308     -0.05278667318544
  N   3.84438751472579     -3.59844569473788     -0.02414680350340
  C   5.14276567045621     -3.31017212333616      0.05543486098793
  N   5.70501068572938     -2.11522708140340      0.09517561157707
  C   4.91504899840101     -1.02640999268938      0.05216108039397
  N   5.53432129634665      0.15841269633431      0.06046223454941
  C   4.92421641201567      1.33980779766439      0.04956350198070
  S   3.12946480015496      1.53767682601461      0.08457985176420
  N   5.49147101535541      2.49849705348159      0.04566691708594
  C   6.92576046564380      2.43154791173446      0.00594983743118
  C   7.49556915905172      2.09797588514732     -1.38033039368076
  O   6.85036464568941      1.90355314149356     -2.36378576207523
  C   7.55676541341701      3.68824994585659      0.43127677800152
  C   8.11809456698401      4.70059524339074      0.74264970114216
  H   1.97202038698000     -2.74968228677231     -0.11004112886075
  H   5.81904064465873     -4.15989671012970      0.08798191670347
  H   7.31908418185233      1.62338748441491      0.64353016661783
  H   8.60446859174520      2.05469066269926     -1.39839585737023
  H   8.59484914967744      5.60478688259161      1.03266090679905
