21
Coordinates from ORCA-job 8484optt
  Br  1.44667222932504      0.07181917118051      0.40310067769539
  C   3.24410272814913     -0.01778274067821     -0.19142595704166
  C   3.93779808069321      1.12860266574292     -0.48240869140383
  C   3.87554678746571      2.58390496946068     -0.14224962896722
  N   2.91875655881017      3.35150805152922      0.15515615064091
  C   5.35068169650045      3.10137601463131     -0.10708208910755
  N   5.67636451634156      4.26420062527851      0.27599788752677
  C   6.17941593033717      1.95272881376235     -0.48310684356743
  C   5.27374865959105      0.94259923243250     -0.86047238473299
  C   5.90744931431620     -0.27996573304568     -0.90052694658535
  C   5.34664366356137     -1.39853526882996     -0.31555448272674
  N   6.33634837290466     -2.11664787820034      0.33574328550481
  C   7.43165684291743     -1.35310800514095      0.27134157043844
  C   7.23598041516593     -0.11397486790751     -0.44416960020959
  C   7.40552226552581      1.29617996199492     -0.20675218417840
  C   3.88219110117376     -1.39078654151554     -0.08984975735582
  O   3.22365561616340     -2.35900713631429      0.26302766279189
  H   2.03104523022022      2.84981486206727      0.13085460513823
  H   4.81727801122955      4.77388579333476      0.50220859067994
  H   8.32804013436879     -1.67871472734476      0.78560476056448
  H   8.26710184523933      1.76490273756227      0.24856337489569
