20
Coordinates from ORCA-job 8487optt
  Br  1.51365847120407      4.15777805361085     -1.30259398273095
  C   3.26992111921077      3.95283940755049     -0.64862428468991
  C   3.84175166866478      2.70071333639912     -0.43220255203805
  C   3.14079891107120      1.47159467009070     -0.72054508277699
  N   3.57529374565022      0.27140880608257     -0.55494401006743
  C   4.83669030494108      0.06774788997215      0.00806692169080
  N   5.28161491894463     -1.10603897858475      0.27470394760812
  C   5.63015052972618      1.26040713885521      0.30906919498848
  C   5.17841008773513      2.59791686561954      0.03820724200520
  C   5.91548774636256      3.78877062843756      0.15819160006301
  O   5.26029928390367      4.99893157872345      0.09292692537737
  C   3.97611601542459      5.16435409778854     -0.34390940646005
  N   3.49007989232149      6.33963656673338     -0.44208701941118
  N   7.23426031843979      3.97934859869206      0.24343672145572
  O   7.95025998255159      2.93972285232586      0.29234989655937
  N   7.51139838556179      0.54303459173258      1.66150888466662
  N   6.70016955446018      0.96218633561619      1.03410730517915
  H   2.14316221130926      1.56601163677958     -1.13785683561515
  H   4.56691090449156     -1.77741698515696      0.00349099367932
  H   4.20456594802537      7.01505290873181     -0.18029645948345
