21
Coordinates from ORCA-job 8488optt
  Br  1.71626412515193     -0.66701153160803     -0.35730185914736
  C   3.27827899028431      0.40432357016411     -0.47577119072993
  C   3.37233754924756      1.64365163059042      0.14233770946459
  C   2.53692332531384      2.49167843218466      0.93525388412502
  N   1.32416786032730      2.41289219527550      1.36988461810365
  C   3.37529094439023      3.72002725091442      1.26560726153122
  N   3.01707075831519      4.72288257752438      1.95899006585261
  C   4.66396979320577      3.51680680341470      0.63023917892931
  C   4.64891952350902      2.31983330717606     -0.01442718502565
  N   5.66113929595817      1.74827683040791     -0.73386226180902
  N   5.52478598044323      0.52493630107176     -1.36357839523048
  C   4.36757907495529     -0.07971292183599     -1.20286608409106
  C   6.91135023318458      2.35546222647172     -0.88516075002561
  N   7.84583838573005      1.79378099050864     -1.52864991771728
  C   7.17611137409404      3.73649643830265     -0.26344827610010
  O   8.26595173671731      4.23325834761638     -0.43683611311239
  S   5.99696608496667      4.60922975461760      0.67473008786526
  H   0.88909819970822      1.54510134211543      1.06515214208382
  H   2.05225058563134      4.55882563354251      2.25935424059242
  H   4.29689207626786     -1.03853583017061     -1.70218171196375
  H   8.64681410259805      2.42479665171575     -1.50446544359528
