31
Coordinates from ORCA-job 8497opt
  Br  0.36551796266439      0.13622804593647      0.55705382254608
  C   2.87478271804972      0.06628910372379     -0.22530363533855
  C   3.60662631753391      1.19808585439299      0.10002755073461
  C   2.90449438555135      2.51138802486028      0.29459069371771
  N   3.78912866304411      3.64505246736297      0.56732245975293
  C   3.16322014544357      4.85093934443983      0.75849320308103
  N   1.92155193932313      5.09929629376033      0.89560147009667
  C   5.16550384187869      3.56060536682435      0.06198583975571
  C   6.02027437206099      4.78726795223419      0.42316665437618
  C   5.84963772522764      5.74636455710434     -0.76811502145012
  O   5.06407544641247      5.05924428110470     -1.72976774333503
  C   5.18037355289527      3.67310828189165     -1.47134089611469
  C   5.80316027036109      2.27888661122724      0.58536394957408
  C   4.98123523566228      1.06324064791860      0.26096835230109
  N   5.62935408133435     -0.09828703911422      0.13532751364333
  C   4.89929386574248     -1.17422505506597     -0.14782927263237
  C   3.52086287279217     -1.14665552055922     -0.33672739094125
  H   2.20973589899479      2.38945282579564      1.12968672141680
  H   2.27580333837387      2.71709439373021     -0.58163868886180
  H   3.84120593312563      5.69660005863900      0.82632968858093
  H   1.34327926242985      4.26620684368641      0.80574623969708
  H   7.05623458364538      4.45698718133194      0.49800001155321
  H   5.74306039790411      5.21764951743454      1.38344341479271
  H   6.82029583769362      6.01088195347527     -1.20155264558221
  H   5.32598179622962      6.66777547960047     -0.51064678475766
  H   6.12551030251037      3.27887107839202     -1.87015991343292
  H   4.34764821236474      3.16102962280714     -1.95021706750680
  H   5.92230559872383      2.36998794888230      1.66983634257366
  H   6.79965169828998      2.15272421567822      0.15703416782758
  H   5.44690168336874     -2.10952034006238     -0.23583524857658
  H   2.97829206036750     -2.05756999743337     -0.56184378749140
