16
Coordinates from ORCA-job 84optt
  C   -4.11759605672300      0.66482148535148     -0.08215438769113
  C   -2.96503518474683     -0.18443646425186     -0.09279666085611
  C   -1.67647689530852      0.33081461384423     -0.08086880203450
  C   -0.50084971065546     -0.41787488501214     -0.09363026192422
  C   0.78481936276795      0.10597826220844     -0.08426828742488
  C   1.93265522085996     -0.72961484485186     -0.09857743064746
  H   -3.10586772897561     -1.26104923785076     -0.11313856588852
  H   -1.59553093868827      1.41479913223299     -0.06032809518405
  H   -0.58072235237544     -1.50228521929861     -0.11381715804399
  H   0.94634798435739      1.17599518492599     -0.06587940708230
  O   -5.34389581500584      0.01032875112845     -0.09697376178238
  H   -5.17767783796693     -0.93688905367235     -0.11342419869719
  O   -4.14688764995346      1.87959511993446     -0.06204068373702
  O   3.12243678086007     -0.02049439683906     -0.09144086125731
  H   3.80023735649775     -0.70687076579376     -0.10083123258679
  O   1.99204346505625     -1.95481768205565     -0.11583020516217
