29
Coordinates from ORCA-job 8500optt
  Br  1.02283435011061     -0.42717755361091      0.88822750036332
  C   2.75024025415137     -0.21216376399570      0.03002162620372
  C   3.48528629914636     -1.32389034497571     -0.25164261632553
  C   3.40470827729020     -2.74783685953877      0.23454533543293
  N   4.80739325553385     -3.18941239280178      0.17139209583849
  C   5.19813674360679     -4.42372944070378      0.54508376282471
  N   4.52305688763374     -5.36703387083789      1.09109326233849
  C   5.66349385037659     -2.28280942641243     -0.61670815272822
  C   6.86304365767366     -1.60427178767675      0.10222750699840
  N   6.82263510939069     -0.16190780777412     -0.24509792549899
  C   5.42738085826831      0.09596046912458     -0.50533650919956
  C   4.76287403866453     -1.11455175608128     -0.84322606473978
  C   4.70983773224439      1.21232091609947     -0.18871833928547
  C   5.39219182648610      2.49420189005367      0.23513339593113
  C   6.36868243872596      3.00499530084084     -0.72874408056303
  C   7.17340193289829      3.42726155133986     -1.51326257234763
  C   3.27907491769478      1.09273926027628     -0.11869118007337
  H   2.77688702283943     -3.39566914278664     -0.39372870953564
  H   3.02325656735993     -2.81127258335595      1.25813273504130
  H   6.25682499646468     -4.60681919295209      0.34624488110153
  H   3.55281933695883     -5.08402501256692      1.22483879669538
  H   6.00076751366088     -2.81180970642659     -1.51968103731263
  H   7.83693020285855     -2.02825350035194     -0.15060212891088
  H   6.70896497080560     -1.70299432974299      1.18083227708088
  H   7.39550635407555      0.03206159131568     -1.06030047734916
  H   5.91381332908608      2.33716790184928      1.18593936530951
  H   4.63864166584409      3.26591572961570      0.40763694629330
  H   7.88372762966147      3.78911914874299     -2.21539585392929
  H   2.64858798048854      1.96388471333394     -0.00521383965393
