27
Coordinates from ORCA-job 8502optt
  Br  1.19845888430530      0.06631625810060      0.44190380667281
  C   3.06620564709762      0.05245836775334      0.15975799510553
  C   3.76116150021932      1.23280880170098     -0.04434888081116
  C   3.34983588829088      2.66478014474155      0.11653241688607
  N   4.64620775399223      3.37740202269442      0.10066904639584
  C   4.69068631115470      4.72938255379957      0.01309354503903
  N   5.67043292217257      5.49350008320319     -0.28656677709390
  C   5.74886384220368      2.52033117733679     -0.33215677510132
  C   7.00144390565483      2.44132751167342      0.54357183460665
  N   7.79620910902128      1.33519201122065      0.00904574881328
  C   7.24872333408840      0.01545171649620     -0.00991419129326
  N   7.97694949878914     -1.05172242785335      0.07410786778789
  C   5.83026950895849      0.00398475206399     -0.15148858048502
  O   5.13521884521075     -1.17832783956885     -0.04160118317413
  C   3.75252248050548     -1.21107523937760      0.12424667073800
  N   3.19184945885478     -2.35224905805432      0.24365571886459
  C   5.11877472815695      1.17547643509168     -0.26890587171958
  H   2.82570129818438      2.82594063477567      1.06383138007600
  H   2.69513635901935      3.01593629733326     -0.69006721576060
  H   3.73442440121149      5.19780102564900      0.25418417487333
  H   6.50316216812718      4.95064653927537     -0.50939368082748
  H   6.06696934585995      2.79393009287528     -1.34973960296828
  H   6.68520057420664      2.27863157465938      1.58237238445553
  H   7.60935462229489      3.34644719462750      0.50098107710609
  H   8.73930227529988      1.32093953017183      0.36668718114352
  H   8.95473389354190     -0.80140136468849      0.21316855425182
  H   3.91020144357791     -3.07190879570108      0.21737335641878
