23
Coordinates from ORCA-job 8503optt
  Br  1.31413807001069      0.71675071564983      0.20339647026689
  C   3.16649369946693      0.25512587835422      0.21369137150352
  C   3.63964182462982     -1.00766746775712      0.19851282415354
  C   2.80184358238413     -2.25065355928133      0.22189353562457
  N   3.04624200913269     -3.16468712848912     -0.89110811882405
  C   4.07829739247155     -4.09253797791297     -0.86804891088376
  N   4.02059661655564     -5.24783037984120     -1.43326136739791
  C   5.30654417484992     -3.66422311971693     -0.21824822533487
  C   5.69932313733496     -2.37994099235114      0.20386789327966
  N   7.00169534808055     -2.51078341795461      0.55349714255905
  N   7.48647967390190     -3.75757273044685      0.40229467395389
  C   6.46880987759158     -4.45224441445537     -0.06201922286407
  C   5.05915967325847     -1.11096159475479      0.29617159079052
  N   5.86129616488728     -0.04231606740223      0.56279611779523
  C   5.36129735413644      1.17883286006700      0.61209726645760
  O   5.89553793170107      2.22854034292076      0.86534101184109
  O   3.93458349151382      1.33985643913206      0.28531841423413
  H   1.74979546728710     -1.97789809643199      0.19100094302041
  H   2.97939171773633     -2.76868344391391      1.17183095202467
  H   2.20893197243959     -3.51472359729240     -1.32878690305798
  H   3.09202298389520     -5.41382441735488     -1.81791762225992
  H   7.56981758850804     -1.74196270346449      0.87091792362989
  H   6.57206024822623     -5.49959512730251     -0.29523776051209
