29
Coordinates from ORCA-job 8505optt
  Br  1.40688490062547      0.35646532167232      0.56352510544817
  C   3.26204219732048     -0.09298178074254      0.55746013973343
  C   3.67335348948140     -1.44710065564596      0.34179590389078
  C   2.72545569998122     -2.59566213860091      0.55234029528800
  N   2.26586623399279     -2.60622701504169      1.94760524560786
  C   1.09091934558100     -3.16678496404873      2.33910552116124
  N   0.30637197728647     -3.94405222247281      1.69812824021587
  C   3.38033993561216     -3.94171426343490      0.19421610659528
  C   3.74362209311748     -3.99718747538685     -1.29796713189232
  O   5.10941996001512     -3.60375007622439     -1.39892081214132
  C   5.50710292324872     -3.10388780292967     -0.11166254554793
  C   4.76427155307469     -4.03387715591222      0.84082662081655
  C   5.04530832459476     -1.69010932041201      0.11498530250864
  C   5.94307775079036     -0.66306977320766      0.12640571329053
  N   5.50364206416663      0.63292833738021      0.37016314818267
  C   4.15516707236953      1.00539254430734      0.53349942218293
  O   3.90132200898374      2.21022755373201      0.64049912034785
  H   1.83161729046262     -2.46590270083896     -0.07611852493011
  H   2.58805646822720     -1.81955486124252      2.49149608037355
  H   0.82441372528814     -2.91168102345192      3.36616473446081
  H   0.63581740446978     -4.09959109497029      0.74701694574146
  H   2.72253513593444     -4.76050079350159      0.48681918936541
  H   3.11621157364863     -3.32155434645687     -1.88701699819203
  H   3.64990968864039     -5.00886048765721     -1.70287312873442
  H   6.59412228231317     -3.17260841540779     -0.06783557409635
  H   4.76698552889702     -3.69131074582452      1.87417449467321
  H   5.16337288133105     -5.04846271595448      0.78183537834212
  H   6.99812694997084     -0.79684608582027     -0.06535372517613
  H   6.13966354057463      1.41126415809495      0.35668573248424
