26
Coordinates from ORCA-job 8506optt
  Br  1.20592985498139      0.13500473134298     -1.04398116756370
  C   2.98240497166973      0.04218418807416     -0.34982758014497
  C   3.82042015075697      1.12667986899703     -0.30899507387720
  C   3.47271285401372      2.44692752872936     -0.95190917771069
  N   4.02181317331441      3.57906674417529     -0.21442770440454
  C   5.19229383521977      3.48815045974091      0.48447514716411
  N   5.63799761313913      4.34090064411594      1.32737620027912
  C   5.98843204762831      2.23097689949941      0.12903932254101
  C   7.33792384796920      2.16096492551573      0.84299978260507
  O   8.26864215981419      2.75192041540306     -0.07213500101149
  C   7.54674934422068      3.15877402016318     -1.20276005043812
  O   6.39538306201070      2.36647919392016     -1.25581864108517
  C   5.08858511676623      1.02719206560857      0.29611853907246
  N   5.56931923187079     -0.00363856112543      1.01014269420978
  C   4.90287310212644     -1.14937405972879      1.19395127579414
  N   5.22222362375042     -2.12926047434464      1.96187355314375
  S   3.39825331269051     -1.53869612709682      0.24309851383921
  H   2.39342085501666      2.57302596052392     -0.99462034766169
  H   3.85077310456644      2.46263080548159     -1.97850896925715
  H   3.37129006698972      4.28168979559953      0.09402686020779
  H   4.97477748782779      5.10654547215757      1.45260893752984
  H   7.60801804299739      1.12350891830038      1.01464818681933
  H   7.32186423765955      2.72653280429781      1.77149338471351
  H   8.13675998290411      2.97861407924745     -2.10238375813495
  H   7.28132493887460      4.22266026376430     -1.11527740660116
  H   6.09781398122074     -1.87846056236277      2.42179247997174
