21
Coordinates from ORCA-job 8509optt
  Br  6.57427479370361     -0.97046064514988     -0.50849761232745
  C   5.64247552792077     -1.82887569433128      0.88573989818099
  C   6.17695542876164     -2.95791243513252      1.53111123097630
  C   5.47416310323853     -3.25874614538408      2.78793658609381
  N   4.23566176842618     -3.02475013912396      2.93395142092095
  C   3.58586261608633     -2.62953839274210      1.74642081501817
  N   2.86542372291639     -3.42121467401134      1.04711470613426
  C   3.32766667463777     -4.75273472974688      1.31518054277540
  N   4.50202593038302     -4.98685797720350      0.78686226868978
  C   5.01731841974156     -5.98782503964247      1.56771772021957
  C   3.97430787476061     -6.40573465075286      2.44778483812488
  N   2.91083235580553     -5.62716306236482      2.28931878347226
  C   6.38757417239729     -5.97211719279561      1.89059750748066
  N   7.29957598176840     -5.11358330188592      1.47765146883704
  C   7.09977332266227     -3.87662348962808      1.01853761336832
  C   4.24156340694015     -1.42712645024155      1.07650186958981
  O   3.70105288967643     -0.44798488511912      0.60829239100268
  H   6.05507425476249     -3.62980162957126      3.63216500798901
  H   4.01091228891148     -7.18156953978892      3.20119017248969
  H   6.74423079355238     -6.74872061245460      2.56661374889503
  H   7.71727467294710     -3.56665931292921      0.17880902206879
