25
Coordinates from ORCA-job 8510optt
  Br  0.94681656446721     -0.21224669338969      0.25365194448070
  C   2.83418975053735     -0.11586139391556     -0.03586863013597
  C   3.63020031942052     -1.27709542461602      0.13278325035955
  C   3.46070609633340     -2.63792620655646      0.42396888059064
  N   4.62252435610387     -3.30774116464751      0.36098356008882
  C   5.58548346260292     -2.39752502513581      0.04084281603026
  N   6.91426233683654     -2.81809612131726     -0.14979893999915
  C   7.86576895578710     -2.10231673268952      0.24582899079343
  N   7.86773996029525     -0.87263480520600      0.93012475730263
  C   9.17279036393622     -0.66366193167996      1.53513053786875
  C   10.06380152494430     -1.66532911569577      0.81145951475541
  N   11.32710408943475     -1.80528137744563      0.85414991567883
  N   9.21730001761587     -2.44353211648890      0.08709138107972
  C   5.02546781240772     -1.13143905185319     -0.10722404751317
  N   5.50750238725205      0.10623361926609     -0.55100053616760
  C   4.62363334576061      1.17347007685452     -0.58596080216893
  N   3.33863971336118      1.06686240220262     -0.36458438641719
  H   2.53413150123494     -3.13636011335795      0.67117910820996
  H   7.03433796261463     -0.74504972651080      1.49474838107480
  H   9.18964575656222     -0.89138376907831      2.60609645539865
  H   9.54019207522090      0.35344781552757      1.38998735391079
  H   11.73702673011711     -1.10050558183884      1.46027840776665
  H   9.49644120194210     -3.26693607690026     -0.41841797340663
  H   6.49683532663772      0.29002972975100     -0.52407923775234
  H   5.04145838857331      2.13187878472164     -0.86237070182861
