24
Coordinates from ORCA-job 8516optt
  Br  0.97005478011863     -0.09037899211109     -0.11458751981526
  C   2.86613250257281     -0.02598959906634      0.01723077829008
  C   3.58858946083459     -1.15464696832635      0.06699671278955
  C   3.09316285604852     -2.57533721737008      0.05858883696684
  N   4.30847626672062     -3.35129508881404      0.29481586582324
  C   5.44324476051927     -2.52924737620033      0.17075988428418
  N   6.67719022380188     -2.93370915958922      0.09893733324115
  C   6.98170852888618     -4.25817699611796      0.24991133938912
  N   8.05983018090877     -4.79079541262637     -0.33931017487170
  N   8.07714614870747     -6.04049954783478      0.09054562283218
  N   7.11872518040478     -6.39698967118611      0.91258844677072
  C   6.39639769103094     -5.29310123650942      1.03670164957457
  C   5.01334052583307     -1.16484059751460      0.12216130404575
  C   5.81524264846535     -0.02281934713042      0.11855695198847
  C   5.32355887972814      1.30247092077568      0.07404595833093
  N   5.96139341022082      2.42701181439229      0.06809892584712
  S   3.53488516008639      1.59098675263193      0.02408194631581
  H   2.63368200000834     -2.82326987025859     -0.90449321227690
  H   2.34764449702938     -2.75021172440164      0.83815310365647
  H   4.37445697955325     -4.24989594493866     -0.16149188516725
  H   8.79259155000201     -6.68420458123890     -0.19499087027081
  H   5.53035496542493     -5.25849109150441      1.67396669013492
  H   6.89179675736902     -0.14678221209215      0.15322686407412
  H   6.96239404572475      2.23721314703157      0.10250544804671
