23
Coordinates from ORCA-job 8524optt
  Br  1.24619689107965     -0.12575543014659     -0.06677891463890
  C   3.13048824564290      0.05458670970974     -0.06523318661169
  C   3.78523118034920      1.22761432773292     -0.06471663181233
  C   3.12697712080433      2.52360354481820     -0.06484538989019
  N   3.72661792106150      3.64644969815445     -0.06447872139655
  C   5.16179960909673      3.68430457091201     -0.06399223210454
  N   5.73639516270814      4.83891899720823     -0.06391918957660
  C   5.89283463366113      2.45338609951042     -0.06371503412161
  C   5.25103175206672      1.23381183765067     -0.06399350763626
  C   5.84456189755487     -0.03695347084690     -0.06375005150259
  C   5.09889048394164     -1.20924421385461     -0.06404490890943
  O   3.70138276216513     -1.14592895572472     -0.06488903350836
  C   5.70262074335600     -2.44993147732491     -0.06361963823502
  C   7.09390304895195     -2.51210241928987     -0.06300611352246
  C   7.88569578062501     -1.32173975626324     -0.06291039756020
  N   9.16048028558824     -1.19113966842246     -0.06253621726634
  O   7.20560290130682     -0.11129738198373     -0.06314899894557
  H   2.03870284282660      2.53566323859618     -0.06519290470463
  H   5.00517762064162      5.54807680097374     -0.06417961470721
  H   6.97156886948573      2.50270870268959     -0.06327660750917
  H   5.09007021384108     -3.34199889889227     -0.06377986235534
  H   7.61568558994709     -3.45745634622711     -0.06264828982755
  H   9.57708444329785     -2.11757650897975     -0.06234455365746
