22
Coordinates from ORCA-job 8527optt
  Br  1.20193151498924     -0.19430355945631      0.07489242761234
  C   3.11817756983506     -0.01246647801962      0.03072755701042
  C   3.69722182209442      1.23153370976207      0.06180954537878
  C   3.19249289454409      2.61148857483076      0.12201739864296
  N   2.03530579719481      3.12567432934710      0.16113184179818
  C   4.44009180189459      3.49799346068500      0.13252608138859
  N   4.43288841884944      4.77033731124338      0.17920113273543
  C   5.57843605449040      2.60740269029580      0.07802120496797
  C   5.13055782975165      1.30815370335343      0.03434368695931
  C   5.91273271488799      0.06740386034145     -0.06560313885105
  N   7.19461641529290      0.01371521326178     -0.24434218887042
  C   5.10547059015426     -1.14065325515611     -0.01761973592596
  N   3.77658365653522     -1.15394758910712     -0.00504311262883
  C   5.72810598457682     -2.48840925653574     -0.01430539259793
  O   5.20655470053426     -3.45267622117740     -0.53003883624139
  C   6.97328861614944     -2.67991713917765      0.73681172408666
  C   7.93279458756001     -2.94716952307940      1.40415295585142
  H   1.31215088564819      2.40867601284344      0.14785374921893
  H   3.45513200617872      5.07408712946323      0.20631889675300
  H   6.60394747553210      2.94286919175975      0.07388547983842
  H   7.58127247801730      0.95580926963667     -0.26366193924056
  H   8.79724618528898     -3.15360143511450      1.98692066211375
