25
Coordinates from ORCA-job 8530optt
  Br  0.31430302465788     -0.44021744770017      0.03607641248111
  C   2.83551330901155      0.07180290068191      0.40073336534618
  C   3.31199587293966      1.31806784715857      0.03629827734830
  C   2.34583679137897      2.48888752744890      0.17026847347172
  N   2.91042088190369      3.70266279148297      0.75685361085655
  C   3.85536980428079      4.25513780642807      0.12675638082953
  N   4.39326462835527      3.82361407228147     -1.12264517980112
  C   5.29633850264481      2.68800062788392     -0.92022876934086
  C   4.63782374642558      1.40207119123105     -0.44775202929534
  N   5.44871184425977      0.35072459572149     -0.54923665953280
  C   4.95313040373478     -0.82303758985232     -0.18856006809216
  C   3.64735021765104     -1.04606411441833      0.27967967735783
  C   3.39708475110227     -2.43375036560811      0.55083473143294
  C   4.47613933708287     -3.20669490175967      0.30814333869753
  S   5.85466412429054     -2.31701305832898     -0.26579669456792
  C   4.51285139959106      5.41179934620287      0.69710424172261
  C   5.07986843876884      6.36288882496103      1.15544209184918
  H   1.52731005157314      2.15362232681082      0.79924807195901
  H   1.89545209885553      2.71529417662319     -0.80524296058820
  H   3.62529896164670      3.52077543594200     -1.71451571016354
  H   6.06253707015110      2.99059741345665     -0.20137221154391
  H   5.81275726611115      2.47417016439377     -1.85619010177158
  H   2.43605788945464     -2.79116832884460      0.89180635406577
  H   4.55569545645894     -4.27583527547235      0.42657859327338
  H   5.57422412766932      7.20566403327578      1.57371676400578
