26
Coordinates from ORCA-job 8539optt
  Br  0.98298548332684     -0.21919590451384      0.50432895253837
  C   2.86962903971996     -0.05898051875379      0.32845008309767
  C   3.50296781752387      1.18161983568169      0.08152231281505
  C   4.92583850681390      1.18428463421120     -0.08135891222626
  N   5.67976466216687     -0.00838889268084     -0.00228177634358
  C   4.99680050424541     -1.19840725720752      0.19622900861254
  N   5.86231786487072     -2.31288128581327      0.19292113185538
  C   5.25191449567823     -3.60474065750866      0.42371560650811
  C   6.26701266600919     -4.65451211849373      0.50008363909209
  C   7.09976198165938     -5.51140241257523      0.58637540246253
  C   3.64068204144605     -1.23841673996506      0.39232142746096
  C   5.30895308090732      2.48363417562365     -0.30556938821637
  N   4.21627840300882      3.31632645188340     -0.30009795255166
  C   3.16211560165440      2.54155528424356     -0.06890136028973
  N   1.85735568204936      3.08469178053340      0.00978027583582
  C   1.54023817848036      4.37459226692996     -0.19271893881505
  O   0.40744092186457      4.82945775969630     -0.10692947925045
  H   6.45853287057776     -0.08311633700855     -0.64266915854049
  H   6.64794386829391     -2.16058985857783      0.81824959521429
  H   4.56603556608462     -3.81792345094503     -0.40063142384100
  H   4.65436494820346     -3.63306793425911      1.34700085694703
  H   7.83997410155855     -6.27052490794336      0.66082016621703
  H   3.15411799755918     -2.17667558559088      0.61370125909055
  H   6.30414507820870      2.87182318685309     -0.46821206317312
  H   1.09752955581002      2.45968355193904      0.23644092763321
  H   2.41529908227845      4.98515493424143     -0.44657019213291
