29
Coordinates from ORCA-job 8541optt
  Br  4.96182971093820      1.21135530868813      3.98690852481978
  C   4.12395813321376      0.13465465554557      1.94570789099650
  C   3.28581499957284      0.93194460812442      1.20855478279578
  C   2.27157325468277      1.75133610230642      1.98695524703244
  N   1.06354172187919      1.86213898881729      1.19253773260919
  C   0.77116565250693      2.98624869268937      0.72638425160578
  N   -0.02010530920717      3.10427281652090     -0.41937805573128
  C   0.02294278275498      2.06921669064224     -1.45789327433589
  C   1.20012221130805      1.08821233658935     -1.39175066328970
  C   2.60213353808669      1.71189554813340     -1.18543797977127
  C   3.46638018905514      0.92907230496362     -0.20691071841587
  C   4.45746600593581      0.15776186122474     -0.75725385320620
  C   5.30772790753759     -0.67899369539740      0.02959187075994
  O   6.17525962171183     -1.42673418451554     -0.35439765951547
  O   5.06553141781645     -0.61823894612656      1.40115261982729
  C   -0.72107922120445      4.26310140522374     -0.63943773557402
  N   -1.51654024653027      4.55194505487144     -1.58736884230511
  H   2.68552854749733      2.73601887468012      2.24951016895618
  H   2.06726168465719      1.22459841254161      2.91701207991011
  H   1.19500510003721      3.93512083015188      1.08198123843861
  H   0.06877988665902      2.61011065898830     -2.40875896851486
  H   -0.91142909169574      1.49930334416414     -1.45452971534347
  H   1.18881074829033      0.55830842760118     -2.34764814491585
  H   1.01647310513882      0.35017361434475     -0.61850408939926
  H   2.52302079160106      2.75095776541779     -0.86558294249880
  H   3.12999894189485      1.73467781001096     -2.13973614451771
  H   4.62841329718003      0.13332803732001     -1.82421494720637
  H   -0.54614865915794      5.01087044068401      0.13468203248742
  H   -1.63743672216064      3.77434223579402     -2.23317470569788
