25
Coordinates from ORCA-job 8542optt
  Br  1.09538478627957     -0.31987960413677     -0.22022683551763
  C   2.96601537275264     -0.16597031752551     -0.03309551220918
  C   3.76003918773545     -1.27189320782931      0.01767139489056
  C   3.35574699387470     -2.71380642137456     -0.02342519975796
  N   4.61242977076518     -3.41674975671516      0.21158249677211
  C   5.69809172031338     -2.52574892790570      0.18649309420465
  N   6.93840160007873     -2.86070235795077      0.23382154268048
  C   7.21532433955846     -4.27761181002834      0.35690587162979
  C   6.91138383252689     -5.06772562120196     -0.84930782587250
  C   6.62682720111505     -5.69310630007062     -1.83365821791481
  C   5.15216482629978     -1.18232526991127      0.13740703098392
  C   5.75180165065950      0.08232290343152      0.21233738220517
  O   4.92687637620560      1.18344607251468      0.15577540738638
  C   3.55879100128100      1.14790217098446      0.03269222321590
  N   2.91050489721312      2.24261053162337     -0.01487264659756
  C   7.13661315131222      0.36500925240824      0.35121780132869
  O   7.62944562632785      1.49807202382585      0.43239601706904
  H   2.91847695149836     -2.96874344939816     -0.99419321105834
  H   2.61164390232421     -2.93967033047440      0.74450961218355
  H   4.74654877155262     -4.28308903824762     -0.28837130309515
  H   6.65440895559296     -4.72635995278986      1.18984489620862
  H   8.27648409678274     -4.40447893534543      0.57791908998980
  H   6.38824380606240     -6.23653686682405     -2.71552783669695
  H   3.56969809391081      3.01536333883481      0.04989876650477
  H   7.75965308797670     -0.53932812589339      0.38020596146664
