25
Coordinates from ORCA-job 8543optt
  Br  1.05211982975897      1.76176362792734     -2.09228684398527
  C   2.28251568562699      0.84961087399778     -0.97097532419748
  C   2.28207799029338     -0.55194546940360     -0.85827493766165
  C   1.30114415598826     -1.35424559502302     -1.48030180191328
  N   1.39422450652971     -2.61886564468436     -1.20700681685539
  C   0.60792029599962     -3.64881497743465     -1.39213703887069
  N   0.82947151392904     -4.73920965965720     -0.68048510206928
  C   1.79260787169593     -4.68471693955259      0.26919418504048
  C   2.70836053023760     -3.75981875883329      0.78021898648908
  C   3.28899251180446     -2.44867568668560      0.65076635947994
  C   3.24819967899343     -1.21590735095776      0.00968192265785
  N   4.44110722473362     -0.42606282668192      0.26131567242316
  C   5.71230627499955     -0.92613786421608      0.39442618662214
  C   6.58434648618718      0.11446852836194      0.59294392404602
  C   5.82900011372327      1.31138168934866      0.54478453288262
  C   4.52251352928543      0.93628203895174      0.33305992607258
  S   3.09942936142855      1.91471984645705      0.13494351717011
  H   0.49155438469922     -0.90544150205692     -2.05924924674857
  H   -0.24753136592289     -3.64736888161675     -2.07653438721875
  H   1.86132705601999     -5.63186926798807      0.80097331174386
  H   3.23317475848716     -4.25610802478449      1.59693757868660
  H   4.11121114923198     -2.41107893591819      1.36101836281140
  H   5.89143453304346     -1.98134414942974      0.29268041038298
  H   7.65047971192784      0.02334003915405      0.72068632545812
  H   6.18201221129809      2.32604489072577      0.62362029755344
