32
Coordinates from ORCA-job 8553opt
  Br  2.84315121586062      1.49156051524275     -3.56998515887730
  C   2.66673470124293      1.06561760050536     -1.68511702280856
  C   3.43051354047893      1.80101570922618     -0.74561922591302
  C   3.71585670547808      3.27227488975667     -0.85338206426157
  N   2.73963652829164      4.05239703250828     -0.05949559120886
  C   1.42232037411946      4.15224558329175     -0.44826853617248
  N   0.96246573871117      4.09863276618461     -1.63762152561605
  C   0.41086505612739      4.32337964290457      0.67754108621746
  C   -0.54445088092477      3.11917756934808      0.72127799813123
  C   0.23000706039057      1.84014936982488      1.00601786037230
  N   -0.49589593812666      0.61908330345991      0.64622667411174
  C   0.39056001377383     -0.57560051838943      0.63721197236679
  C   1.73482045435546     -0.34879809401128     -0.00680684135703
  N   2.77425124728438      0.11472025847167      0.82658618077010
  C   3.47713296285323      1.30351268530445      0.58500796337180
  O   4.01220744628198      1.88147783550810      1.55019449180276
  C   1.81319467894391      0.03993167684190     -1.34791683881348
  H   3.70114158817403      3.61608733897273     -1.88626552064992
  H   4.69340621044035      3.51081653847804     -0.43580140578246
  H   2.86399149832522      3.84017733078546      0.92297561641315
  H   1.68889528732806      3.89888532117433     -2.32174391862975
  H   -0.15667801542428      5.23647208384823      0.49298671595612
  H   0.92272160004999      4.43385673165497      1.63751437896216
  H   -1.01309530366168      3.04224714200960     -0.26308209427814
  H   -1.33533399855904      3.27975113240683      1.45830861602706
  H   1.15923488209546      1.90821611391697      0.44182102156271
  H   0.50602576147597      1.78492305506335      2.06575598694762
  H   -0.81084802851578      0.74874237052338     -0.31166796447933
  H   0.52551296820835     -0.89778071264949      1.67554700656439
  H   -0.15716591190842     -1.36724971430011      0.12036844888136
  H   2.70780928363327     -0.08724868784527      1.81334579976361
  H   1.12501127319623     -0.37467387001761     -2.07591410937445
