26
Coordinates from ORCA-job 8555optt
  Br  0.55558829544511      0.35863843513909     -0.36360006748331
  C   3.05328377685271     -0.00762763611416     -0.58915716969309
  C   3.55163716298410     -1.20477125623609     -0.17739151372331
  C   2.76126158138405     -2.46671419358630     -0.07785937466509
  N   3.63498038043471     -3.62113183762159     -0.39533515636169
  C   3.25565616601638     -4.58732948143152     -1.32456570528062
  N   4.00449246575835     -5.37812944810423     -1.98391313957079
  C   1.82365943637582     -4.68648498182172     -1.53954968738902
  C   0.64162434524819     -4.76699259789946     -1.70551268826964
  C   4.87053031213392     -3.69313365050121      0.26034782453206
  N   5.56208911099152     -4.74039876187285      0.49990784119604
  N   5.35303566414348     -2.48066706657343      0.70413015911144
  C   4.88004544563934     -1.23216972512303      0.30606614905420
  C   5.64779256687598     -0.10451080819413      0.39974623242541
  C   5.11335106841639      1.16960992081955     -0.00302355595785
  N   5.67324199698078      2.33379196536271      0.01797851879423
  N   3.80686513596131      1.09820164012291     -0.49955238660430
  H   1.92673590274346     -2.43928052127634     -0.76970730855298
  H   2.35496027351585     -2.60818520679832      0.92947946419347
  H   4.98728431986381     -5.20014313206313     -1.78426698313069
  H   -0.40984943790042     -4.82094790667408     -1.85578983425926
  H   5.07030331519424     -5.58160713344871      0.21973100561583
  H   6.26104177572644     -2.55125726851108      1.13614960283728
  H   6.66749592553314     -0.14608684866109      0.76017659501247
  H   6.61398116489508      2.25391552579464      0.39143642331599
  H   3.40691184878611      1.98541197527363     -0.77492524514676
