24
Coordinates from ORCA-job 8572optt
  Br  1.11466790212723     -0.07333945235951      0.09244888648088
  C   3.00621703422200     -0.27788165066604     -0.00331415590008
  C   3.61733507136509     -1.46492301879684      0.14592722774356
  C   2.86798807112023     -2.75242736246480      0.38774590989879
  N   3.64881280885598     -3.90092121115989     -0.05966937192716
  C   3.60756082636164     -4.13965700298144     -1.43023522284913
  N   4.49155240990609     -4.56850819470651     -2.22433593084675
  C   4.93087944271658     -3.91653252009616      0.63201788689503
  C   5.64933516692183     -5.18641925548963      0.46725009748229
  N   6.18435896119979     -6.19687997440936      0.39353686572005
  C   5.80332394021808     -2.67977210875004      0.29848347217047
  O   7.03476447718623     -2.79672856806194      0.30986309829501
  C   5.07157121804565     -1.47255451148054      0.08139036367294
  C   5.75725656719924     -0.26770054265222     -0.15946450570987
  C   5.09496384420008      0.97147882154898     -0.31340390337160
  O   5.57884934294900      2.08730290472944     -0.50871583311887
  N   3.68090757160561      0.89161968698790     -0.21476821266264
  H   1.91714493892703     -2.75432249338637     -0.14433492439133
  H   2.64706432948477     -2.88619450884796      1.45143280108226
  H   2.60952878178555     -3.94608073768417     -1.82748949568429
  H   5.40692762165157     -4.68752041523391     -1.79412894313801
  H   4.69668839052338     -3.87147013324830      1.70243286932993
  H   6.83544170303011     -0.27308842478776     -0.20756112082869
  H   3.18685957839715      1.76152067399710     -0.32610785834277
