19
Coordinates from ORCA-job 8573optt
  Br  0.97516837807019     -0.20486873206486     -0.35412165418631
  C   2.85127706657586     -0.23330632010345     -0.68974835867754
  C   3.58795104927844     -1.31507598589206     -0.26071588290234
  C   3.29437831341295     -2.61160216583274      0.18136542885117
  N   4.39368795724009     -3.30561235644329      0.51892717083695
  C   5.45904515372672     -2.49675130285704      0.31963528866739
  N   6.70201241487816     -2.83869798243369      0.48380790462519
  C   7.72178140349806     -1.98831591374508     -0.05651647993734
  C   8.86904633174052     -2.79198721238113     -0.52942118324334
  N   9.78667351056590     -3.37394963237383     -0.89632636430927
  N   4.99978008926026     -1.21768488902394     -0.13862709430135
  C   5.52876464875843     -0.02069274328492      0.34152362813907
  C   5.00281318084471      1.16649627572430      0.04150496269538
  S   3.65064572917689      1.26954170012717     -1.08798202869916
  H   2.30592087970663     -3.04151309079298      0.23582190723547
  H   8.15177939791095     -1.28898582730607      0.67528524226445
  H   7.39498191624663     -1.37681156385568     -0.91011720942664
  H   6.34422219171033     -0.11621156911210      1.04601734222728
  H   5.37007038739813      2.07702931165140      0.49268738014096
