29
Coordinates from ORCA-job 8581optt
  Br  2.37705298515857     -1.86253400617667      1.22874417177992
  C   3.05082270384462     -0.45526701437644      0.15920615679521
  C   2.67932315913241      0.83379779873979      0.35323691771472
  C   1.71536484078674      1.29417720502887      1.41963583352939
  N   0.56546672832539      1.96761480333462      0.85449373683306
  C   0.31122792719039      3.29492502059416      1.14295328511999
  N   0.73087220169821      3.78285367409911      2.24724241271606
  C   -0.32835209700278      4.05537512230755      0.01868376817474
  C   0.69350031177335      4.58878026372344     -1.00350217019852
  O   0.26211347318063      5.45411200165480     -1.83463462633456
  C   1.70783477203928      3.56539814804457     -1.46943205413676
  C   2.83150949631785      3.22771580525619     -0.46425076817392
  N   3.23413914029560      1.80186202927089     -0.47536052368699
  C   4.07794236328295      1.39545023189765     -1.45307030178745
  N   4.47686118525322      0.19892964964672     -1.68410104401111
  C   4.00501008211936     -0.84590375003525     -0.88135060803655
  N   4.37476604066568     -2.05799959735992     -1.04269953425192
  H   2.20710149731668      2.00918204746973      2.08336847098013
  H   1.42546597260546      0.43893352579889      2.02283078991760
  H   0.27770912813815      1.66380374100719     -0.06323408008238
  H   0.52394153747594      4.77798082447148      2.26492282911421
  H   -0.89994284196961      4.90056525569572      0.39821660888890
  H   -1.03511258342293      3.38552321569633     -0.51323080626332
  H   1.21238461074635      2.60845394494478     -1.75467449692096
  H   2.14303040150303      3.95900195010667     -2.38960443770062
  H   2.56745387830368      3.50602619339797      0.55004606274149
  H   3.72900397638710      3.79653910239798     -0.70799209719076
  H   4.44074423869455      2.20008972899794     -2.08679153746598
  H   5.03076487016006     -2.08138691563480     -1.82165195806362
