27
Coordinates from ORCA-job 8582optt
  Br  3.66781617800164     -0.85273223800397      3.36389368041329
  C   4.07275195388576     -0.03686017956049      1.67758037403495
  C   4.14056645244637      1.28821365880598      1.49506147307709
  C   3.48749544477935      2.29907437461560      2.42338879396234
  N   2.09794608009331      2.32241925159173      1.94869518275797
  C   1.94812846302368      2.99090594561939      0.88146179439241
  N   0.88576683059134      2.81982650020245      0.01048128302684
  C   1.22196490729423      2.85694860309334     -1.41363305975873
  C   1.74783767670873      1.55446795451988     -2.04912386397349
  O   3.15857732871866      1.36371896004771     -2.04608889840621
  C   3.67848032091245      0.85321925041387     -0.87201416970828
  C   3.58524444620982     -0.53959012670554     -0.63416118591800
  N   3.12134271899771     -1.48618791941434     -1.39549529977309
  N   4.12066362527638     -0.92267379526484      0.62080931385196
  C   4.27097819283573      1.70353308406603      0.09100386252828
  C   4.72736004635198      2.98340130706699     -0.24014632863091
  N   5.05033025010547      4.07355936199954     -0.48328952943490
  H   3.98402212219231      3.27231784005422      2.32644990488467
  H   3.52282407577258      1.98188251384349      3.46298864861638
  H   2.65988183654337      3.74168611247417      0.53103204796312
  H   0.34609918934224      2.00174767782124      0.26944900597757
  H   1.96238103651947      3.64501339161323     -1.57132332226360
  H   0.32037660534748      3.13905215581344     -1.96467243821037
  H   1.47419286990008      1.57334739844553     -3.10728710438902
  H   1.25971342544235      0.68866562347420     -1.58504961325432
  H   2.87400305302821     -1.08024401636368     -2.29489401045614
  H   4.06225486967924     -1.91071269026920      0.80688345869017
