26
Coordinates from ORCA-job 8583optt
  Br  1.81626535338320      0.12696437417027     -2.77889722900698
  C   1.94361072445477      0.71307983919498     -0.91792059443329
  C   3.05812725222490      1.45004878987766     -0.56612543331341
  C   3.55663548095371      2.56687212577906     -1.44865160804668
  N   2.47431277131881      3.55702832317391     -1.75838379746340
  C   1.61881208671480      3.76284824920417     -0.67470534871547
  N   0.37324317131035      3.57121798052088     -0.74324219252710
  C   -0.40835614619575      3.66526519948813      0.47638195399457
  C   -1.14712100388941      2.32771811811616      0.75061183901817
  O   -0.40226638909905      1.39486647197740      1.53644334318027
  C   0.84257513203605      1.14115969758867      1.00935979103667
  N   0.90125237756937      0.48024871811416     -0.16876821609500
  C   1.95861912646533      1.78082277169944      1.62027875594553
  O   1.99589937249670      2.39592559136763      2.69189765990750
  N   3.11281489539285      1.67778987538313      0.83177051076478
  C   -2.39891485867688      2.58084478951062      1.47083125218625
  C   -3.41887530993375      2.82705522912588      2.04942010472087
  H   3.92573177007048      2.20365343261430     -2.40579085536374
  H   4.37430047706899      3.09391880391362     -0.95157455372980
  H   1.91069178814094      3.19140488606095     -2.52152561913717
  H   2.12595882002468      4.04599120611647      0.25450137962643
  H   -1.17401901352781      4.43271377993233      0.34417476895388
  H   0.19067997051971      3.90797902798202      1.36365190327686
  H   -1.37035473772501      1.87474496104967     -0.22185624262680
  H   3.90487173971280      2.17200364516718      1.21354744606135
  H   -4.31949485081080      3.03183411287125      2.57457098178573
