25
Coordinates from ORCA-job 8584optt
  Br  1.55376664069843      1.64652684118670      1.70330382805797
  C   2.83879062908263      0.55012285559308      0.79524909584344
  C   2.70321311072363     -0.82889750676643      0.67889362013690
  C   1.50795568744983     -1.46873804525944      1.20551418440815
  N   0.93046741372967     -2.59629717074865      0.81023996166373
  C   1.51625436321888     -3.57416031541115      0.16884920148384
  N   2.84204368491077     -3.85989426107950      0.05628402016797
  C   3.80907790692359     -3.00497476670710      0.06008538847824
  C   5.18506629284822     -3.66309878616526      0.07949825960201
  O   5.15928197212043     -4.89378429525142      0.80187773196879
  C   4.73470625214344     -5.97983838554348      0.14273503804424
  N   4.59906988383696     -7.12085012085747      0.66195424371785
  C   3.75261621617050     -1.54719976795496      0.02487498077653
  C   4.87057719059718     -0.86740874119276     -0.59654908938675
  O   5.76463131235407     -1.46668326438623     -1.23611503398778
  C   4.90407978584293      0.56564385811470     -0.43586551591890
  C   3.93130507011867      1.23488243930261      0.24181386115120
  H   0.90637306454806     -0.87089533083355      1.87550652727817
  H   0.86326677163683     -4.36250243427924     -0.19180805016296
  H   5.91574613571543     -3.03033564045729      0.57234902124540
  H   5.53415419336593     -3.82654444085213     -0.94020957652606
  H   4.53723777252284     -5.82225833206385     -0.91638296623679
  H   4.80754612974845     -7.06745943810579      1.65979459738072
  H   5.74709320386671      1.08723724586121     -0.87110397497891
  H   3.98567931582583      2.31040780385746      0.35821064579297
