29
Coordinates from ORCA-job 8585optt
  Br  1.18768073641562     -0.14568008844248     -0.50346369528805
  C   2.94713926250798     -0.72704942187591     -0.00647363473062
  C   3.19646767664277     -1.79275855453340      0.77913686014332
  C   2.18746882096074     -2.83526948871220      1.21944302005702
  N   2.49561304171393     -4.17268853817849      0.66992377799183
  C   2.66619070628692     -4.35703523685223     -0.70146256370418
  N   2.20849700334086     -3.60231907603157     -1.61539463537818
  C   3.29255182683084     -5.67163762006349     -1.16080801065119
  C   4.60047247972152     -6.23706202774103     -0.58940268132155
  O   5.79257711605069     -5.57933343927037     -0.99019180478446
  C   5.86556214106929     -4.35301919173375     -0.35361284076631
  N   5.79966013439165     -3.24968603765601     -1.00974287371256
  C   5.26544532015056     -2.15575192655690     -0.39881509796864
  C   4.56106834499663     -2.22827349192976      0.82682364300039
  C   5.03179185044110     -0.97217913952951     -1.21850609239008
  N   5.64262413538813     -0.57992708565863     -2.27400291881980
  N   3.99164572460674     -0.15556829092463     -0.71767454900685
  H   1.17438008112516     -2.55531853163770      0.92863650099821
  H   2.19243822885449     -2.95377311954255      2.30515174817511
  H   3.20791651983854     -4.64509681170372      1.20667206202868
  H   1.75882865112336     -2.76832761713727     -1.24413153853095
  H   3.40422940433818     -5.56858215788841     -2.23895686847470
  H   2.53510395669998     -6.44469560027800     -0.98274417183046
  H   4.69749025794763     -7.26200567391082     -0.95359093645598
  H   4.56155240322113     -6.28870932026284      0.50872975682864
  H   5.80458377944603     -4.45540694430650      0.72887883384521
  H   4.76565679924475     -3.03801847987688      1.51112023557192
  H   6.38108765025497     -1.25199833361387     -2.47344842622395
  H   3.80627594638974      0.65217124584897     -1.29109309860179
