21
Coordinates from ORCA-job 8587optt
  Br  1.26153044268254     -1.17474782862968      0.99464218394638
  C   2.84101567446946     -0.35719938011004      0.27183746923318
  C   2.99756352736184      0.99095697042326      0.18320089136035
  C   2.02413259301043      1.87559079880698      0.91384239671738
  N   1.74561199929610      3.12462491564998      0.94315483455988
  C   2.31399422381014      4.07569721759539      0.03999164047164
  N   2.30523515111676      5.30127033746401      0.35654461351781
  C   2.91642992161315      3.35146351716539     -1.09138816688426
  C   4.17048963909848      2.84163492328110     -0.79090888031288
  O   5.27939861664531      3.62979338324576     -0.49526833503090
  C   5.47835639857456      4.83763388381439     -1.01883099930255
  O   4.75312778639288      5.47778533281659     -1.72307747428079
  C   4.26293773031960      1.49669797263276     -0.40092919851962
  N   5.44512980018871      0.85322730333544     -0.37998341325248
  C   5.59915486271135     -0.43807670780218     -0.25226748534954
  O   6.58890357755445     -1.12924863538758     -0.20284880870774
  S   4.00413526187406     -1.51249958268809     -0.22644022391900
  H   1.45090898958360      1.30142791808814      1.63782553339054
  H   2.74569602313796      5.82020930700060     -0.40347441145568
  H   2.25151697920283      2.59961814618754     -1.50055627612109
  H   6.46573080135572      5.18514020711020     -0.68706589006063
