23
Coordinates from ORCA-job 8588optt
  Br  1.43414357206774     -1.51002879412290     -0.15031908578764
  C   2.70823627627632     -0.17283069549109      0.37722868639062
  C   2.41404716583838      1.19517912502063      0.16303274251093
  C   1.33834538687322      1.64824523061329     -0.66066163871013
  N   1.30140994915083      2.81155720574402     -1.19644996575107
  C   0.11641661512231      3.34065082808312     -1.66457620290307
  N   -0.35300237394884      3.10722274226980     -2.82959863375524
  C   -0.50874609068420      4.27343337855956     -0.68952792092391
  C   -0.08254327623216      4.48833220822823      0.55426857926932
  O   0.95496837893981      3.81233961556122      1.13386712172975
  C   2.21893643681652      4.37088261202122      0.99238440129095
  O   2.32861129280634      5.57256197162299      0.89795194301145
  C   3.29707348714686      3.43386234928557      1.08752583932275
  C   3.35446460494159      2.08195609035190      0.81235799256759
  N   4.51189838599981      1.44768897938083      1.19225201816364
  N   4.77143948018739      0.10255478040806      1.27842450966789
  N   3.78661504975765     -0.68326851183810      0.90418408419477
  H   0.50387951484773      0.95489757658066     -0.79769785789073
  H   -1.19974025044930      3.65588446425297     -2.97089244574640
  H   -1.37968018892203      4.82854840043530     -1.02038964040208
  H   -0.57914111696167      5.20404300598134      1.20139110585696
  H   4.22438261822840      3.90643985245756      1.38892526440743
  H   5.20498508219726      1.99084758459379      1.68031910348622
