26
Coordinates from ORCA-job 8589optt
  Br  4.01592093402657     -0.55686867265389     -2.23876250033359
  C   2.92561370892298      0.07536773069733     -0.79702873601412
  C   3.06742257725757      1.41287509812336     -0.35252821730082
  C   3.20828909068487      2.55122284180602     -1.31663592719173
  N   1.88464499749597      2.91606663050569     -1.91519300388819
  C   0.95683541971458      3.40117449976096     -1.03828234843901
  N   -0.28004266317344      3.09981321176034     -1.05380252765245
  C   -1.08558551477975      3.59327995361504      0.03961929052937
  C   -1.20165560034552      2.45091792345994      1.05846125362443
  O   -2.08303998606426      1.64016087997367      0.99715227141744
  C   -0.14998698503492      2.37042275966374      2.18542680342414
  O   0.48155350431762      1.11438609000156      2.27880474894297
  C   1.39820044121396      0.85503398466576      1.29651812205785
  O   1.25114093023122     -0.39429294981402      0.84491175638852
  C   2.13285475917088     -0.90288179791878     -0.17730299764586
  O   2.03113792178335     -2.09527422772205     -0.37708388870431
  C   2.30724178680195      1.72475666603240      0.82905921745520
  H   3.87747440316430      2.31361746375897     -2.14082279454079
  H   3.58001010513461      3.45059123030687     -0.81766375864013
  H   1.50119143633168      2.13968554333320     -2.44596855019910
  H   1.37611902893224      4.10419219376457     -0.30589373543544
  H   -2.09237881195425      3.82597123859855     -0.30797242315968
  H   -0.65358129302055      4.48114200520893      0.52737984969147
  H   0.57586041928202      3.18078780133308      2.09364865776434
  H   -0.69433446335109      2.50502453803742      3.12300579671769
  H   2.37909385325739      2.70982736370131      1.26995364113183
