28
Coordinates from ORCA-job 8595optt
  Br  0.96730141111491     -0.14020381075462      0.36215631120590
  C   2.89375319659105     -0.02208536917973      0.20232424547631
  C   3.62967602692102     -1.13924783423282      0.48742286549856
  C   3.17911213813527     -2.40369242226184      1.12680658576230
  N   3.65329778803310     -3.57458599322801      0.37449705032188
  C   4.88918332001031     -3.51897112569079     -0.21478944596849
  N   5.37351928693914     -4.35535256262214     -1.04976880953242
  C   5.74388504211989     -2.35844973965247      0.24671080853718
  N   5.02150354562941     -1.10293382418722      0.25073227306054
  C   5.73175942485439      0.11931853175856      0.16061502076882
  N   7.02833332263065      0.19226495820377      0.24651380315078
  C   4.91120823908286      1.25704987708181     -0.06601060120567
  C   3.50214393444639      1.19228588043135     -0.14224288142712
  C   2.76648835303775      2.38250883511951     -0.62325035397589
  O   2.77433281674414      2.44400601425526     -2.09883443260194
  C   3.47330523767105      3.39491677806886     -2.68311748002913
  O   4.03200665787455      4.32409527218946     -2.16448509537002
  H   2.09655570030481     -2.44495580376708      1.18864675852980
  H   3.57519862743936     -2.48346957739510      2.14882241357420
  H   2.95557408029137     -4.10675841504336     -0.12145331581096
  H   4.70351686885574     -5.10236260878839     -1.23772414055721
  H   6.58520665831221     -2.29792235520951     -0.44051096414684
  H   6.14207488247640     -2.60308148259416      1.24453271927723
  H   7.44683821661340     -0.70776924335043      0.45138716904194
  H   5.42029844642583      2.20275687908576     -0.19330777218318
  H   3.22741369824883      3.30301847887361     -0.27009069358838
  H   1.71273922553555      2.36281750810959     -0.35954600360298
  H   3.47277385366046      3.22980315478013     -3.77103603420520
