23
Coordinates from ORCA-job 8599optt
  Br  8.17774718386223      2.40445667581458     -0.83105873151839
  C   6.37968479431223      1.70960908896745     -0.67520114119311
  C   5.43469426804840      2.47723071950240      0.01558198995534
  C   5.84641015197270      3.85137077033868      0.52017601119613
  N   4.71231548273051      4.30591502612510      1.25379466091830
  C   3.81604417711045      4.88575684976334      0.58286079706598
  N   2.51498143209959      4.57572508092435      0.94605686985237
  C   2.31291653266672      3.24581061554594      1.21275487935227
  N   2.98883411612410      2.20342772304801      0.87637916882054
  C   4.13398171912123      1.88401793130297      0.16344412438949
  C   3.97678228428197      0.63342077908541     -0.48524079890307
  C   4.98971450005500      0.03809769009717     -1.18510523042742
  N   6.21843820778476      0.56432983402970     -1.27792290113533
  C   1.49610701218926      5.58648535310076      0.85387615266983
  O   1.85984240019568      6.78595471971861      0.76012725421705
  C   0.17133752770394      5.10931698345877      0.88901827762905
  N   -0.92357442764361      4.71095886122347      0.91473896041111
  H   6.11261125723071      4.48791705339364     -0.33880351444432
  H   6.72367019275235      3.76618395327369      1.16209102528348
  H   3.95909776036072      5.46703841540025     -0.33333014529651
  H   1.36948066554899      3.06227385473795      1.72196477863749
  H   3.01242236327837      0.15414198930125     -0.39481199602905
  H   4.83746039821363     -0.91043996815352     -1.68739049145122
