23
Coordinates from ORCA-job 8601optt
  Br  1.04971914027272     -0.21084888238960     -0.05397322864885
  C   2.96035505726410     -0.05492130332618     -0.17675890456884
  C   3.72306594391846     -1.24324353281258     -0.13906649963717
  C   3.42226075627664     -2.60439118676538     -0.01821515296502
  N   4.53640674526641     -3.35879713078083      0.00205540300769
  C   5.57791760593380     -2.49838238814892     -0.10815741625712
  N   6.91802696658377     -2.91721419781407     -0.11389655426015
  C   7.38709435802501     -4.19807184040462     -0.11592722986444
  N   6.75034661438929     -5.30097844494651     -0.09694456993399
  C   8.88249992725790     -4.27971605520947     -0.20819658032263
  C   9.60704151189640     -3.57849062938701     -1.27385064455366
  O   9.63585846895305     -3.10585249970341      0.06233658085260
  C   5.15186467073943     -1.18844881716308     -0.20472400512787
  S   6.05055901135436      0.28989308678045     -0.37870346319606
  C   4.72056672901000      1.42731062792093     -0.35478543261239
  N   3.43566476996090      1.15913615480362     -0.27001678645500
  H   2.44007796351966     -3.04617054241912      0.05848663933483
  H   7.61593232171230     -2.20026500201114      0.01934912027003
  H   5.74681665220373     -5.11529727298551     -0.06582213972594
  H   9.29218440739203     -5.20107479067208      0.18771342186081
  H   9.03985756154337     -2.96375344644724     -1.96450453814186
  H   10.54557719558534     -3.98117174572930     -1.63900754915079
  H   5.03430562094123      2.45974983961111     -0.42939046990417
