20
Coordinates from ORCA-job 8603optt
  Br  1.99323947021820     -1.89438680060339      0.75442239034302
  C   2.92502045157343     -0.38827696374856      0.07408839101322
  C   2.69160756799131      0.92315584748319      0.47018503894215
  C   1.62956831063502      1.28835230906039      1.31029747836765
  N   1.48383245320131      2.40676698066510      2.02633892863843
  C   1.54081388031886      3.66977931100576      1.68887060184078
  N   1.31608540497170      4.29251763874283      0.54770974312399
  C   1.51362807913925      3.93474242577872     -0.71971212426014
  N   2.56079046999762      3.45972626055799     -1.32326073469371
  C   3.66177478621443      2.93321447415679     -0.73329464266923
  C   3.75574004391432      1.83334094748316      0.04785261607188
  S   5.37859705011059      1.22261073633556      0.42802781389087
  C   5.26666269752902     -0.33409293213167     -0.40923031508672
  N   6.23182196985948     -1.04752654162575     -0.79614593055841
  O   4.00674602042098     -0.77677945502038     -0.67333201421889
  H   0.95797052397746      0.48176512782851      1.59046276128035
  H   1.59568116080160      4.34176548025887      2.54716896376317
  H   0.72741624939155      4.26564353972877     -1.40158984241133
  H   4.60377367043055      3.37930660179762     -1.05089056152536
  H   7.10922973930325     -0.56162498775357     -0.63496856185174
