27
Coordinates from ORCA-job 8605optt
  Br  2.81533010482722     -1.44795679743088     -2.62092671809930
  C   2.81349183610353     -0.21893568917852     -1.14447784630060
  C   2.62000314404504      1.12332910096369     -1.34486707824346
  C   2.04887647279229      1.71694240864775     -2.61396845672436
  N   0.64091716546087      1.98638865066554     -2.27700294186636
  C   0.46814481138522      3.11338942546850     -1.74869983947088
  N   -0.57219875271075      3.40941484264122     -0.81596261769717
  C   0.15055084190980      3.70626836871036      0.36310060010396
  N   0.11936156648685      3.04167298757450      1.42746193446545
  C   1.24713467780215      3.28953835266392      2.31331919171528
  C   2.17960937002538      2.06353366633003      2.37493973064830
  C   2.51524854164941      1.32030435700251      1.08767871109209
  C   2.65998488283921      1.93902011283565     -0.15349960420404
  N   2.63381127638201      0.01337688355033      1.25926993625502
  C   2.94080798861355     -0.74982488941128      0.15193661038736
  C   3.28518158253601     -2.10496613282918      0.38868848502437
  N   3.55723015319057     -3.20763311150545      0.60669809609346
  H   2.11345909892805      1.01916274384221     -3.44289842222182
  H   2.57886890551237      2.64440167707766     -2.87938817367618
  H   1.19631585012949      3.92779226431003     -1.82773717675355
  H   -1.12362697268286      2.56771621791668     -0.66969547569034
  H   0.86226833264625      4.52529545817915      0.20924029138707
  H   0.88864356855696      3.48697919249631      3.32607913681656
  H   1.81488257439050      4.17338450248865      1.98729109045861
  H   3.10955920824403      2.38892683095694      2.85375575175073
  H   1.73998452423312      1.31054203510489      3.02825568530016
  H   2.64215924670365      3.01793654092874     -0.23859090055037
