28
Coordinates from ORCA-job 8606optt
  Br  2.97444350094152     -1.88903304941290      1.47002569665915
  C   3.73214549588944     -0.19863108007226      0.57268566362530
  C   3.01528164420085      1.00718498342757      0.62849028393432
  C   2.21800451786647      1.33179344130029      1.86899640140226
  N   0.75565011152954      1.43872179432217      1.61736221656418
  C   0.03766679150344      0.26112475806312      1.40669565993712
  N   -1.03218860387992      0.09316532343774      0.75469254035155
  C   0.52000611018579      2.60238295688935      0.88923644224310
  N   0.10701304916691      2.66649425572956     -0.29840438483530
  C   0.43235407385832      3.91590959221625     -0.95723264623299
  C   1.84463867102345      3.76993567166457     -1.55232257449539
  C   2.92483343614022      3.33203023470820     -0.53906428499893
  C   3.18511392685221      1.83287284151873     -0.49020815512990
  N   3.70018284030762      1.39634858550187     -1.65150267165742
  C   4.20444889186396      0.16500821715444     -1.75165137696310
  O   4.57057828016899     -0.42325587448464     -2.73642587976899
  O   4.41996967585946     -0.53441082592352     -0.51418485062542
  H   2.52626034392146      2.28049241774575      2.31619550458816
  H   2.37282940851863      0.55480051383749      2.61481582693007
  H   0.48037299257775     -0.57593012055997      1.94270533635846
  H   -1.28371389562906      0.93877072764645      0.24562422895326
  H   0.88555192290018      3.48939024884903      1.42005204710280
  H   -0.28664466450890      4.11953129999643     -1.75152785893749
  H   0.41837204612358      4.76351220391798     -0.25668179013646
  H   2.11994487735698      4.73272587863753     -1.99044495969182
  H   1.83244427158011      3.03843897798423     -2.36095540204831
  H   2.73155065591446      3.74894037734841      0.45036597610933
  H   3.87288962776644      3.75968564855606     -0.87433698923752
