30
Coordinates from ORCA-job 8610opt
  Br  1.75073913340963      1.53780781783257     -2.92545848562877
  C   2.21165223847694      1.26616211350010     -1.09602770956516
  C   3.35898009811598      1.92446072181847     -0.57474561756649
  C   3.39946838215326      3.42956413243308     -0.71428335670825
  N   2.30733897662830      4.00906041878688      0.09646400102860
  C   1.05483189975338      4.24393452926243     -0.42825607617370
  N   0.74181771398196      4.65967702574554     -1.59319400615003
  C   -0.06708084779781      4.04325752076268      0.58374835575156
  N   -0.02713504696102      2.73898845606160      1.22248163034094
  C   -1.00493995622821      1.75618682339326      0.77492660899116
  C   -0.76589982751738      1.19342818079868     -0.62434015511857
  O   0.16808284646510      0.12291584489334     -0.66798898197831
  C   1.42612823484002      0.50357452729464     -0.25827847887484
  N   1.75965362398792      0.11927516375211      0.96588083426238
  C   2.97451279027157      0.51952268138981      1.44753897943270
  N   3.51432190496929      0.11536025790407      2.55209116565346
  N   3.66941065338170      1.48984457055859      0.73029934138483
  H   3.27759074030691      3.72522648342883     -1.75463110013435
  H   4.34798944871046      3.83441273555093     -0.35473451935498
  H   2.22651397120504      3.46658953819079      0.95189378155836
  H   1.56299298110467      4.76423390950349     -2.18648964533113
  H   -1.00935843110035      4.21969258589923      0.05597658181794
  H   0.04055781836188      4.82126366737841      1.34613984069471
  H   -0.02830952027294      2.80149111636847      2.22785935855661
  H   -0.98333816181648      0.92228840864173      1.47832646855794
  H   -2.02108244987638      2.18637885113172      0.77490104509676
  H   -1.70021739133536      0.76386366647423     -0.98958710517425
  H   -0.47070281440201      1.99694469767438     -1.30876488680983
  H   2.88229609166151     -0.56371254578626      2.96490775988509
  H   4.56818489952239      1.72030609935613      1.12534437155568
