24
Coordinates from ORCA-job 8613optt
  Br  1.79019129034633     -0.55974846782379      2.10604360400976
  C   3.23784543453620     -0.18380230626092      0.91335493637262
  C   3.42432570840869      1.10726494134317      0.39577998864774
  C   2.48962805518937      2.13967737895373      0.51180684526402
  N   2.38893696380715      3.28377889867732     -0.17604507679292
  C   3.37755693059428      3.84335354683819     -0.86135140585789
  N   4.67715203362089      3.64842507967944     -0.85495859112783
  C   5.24524667677192      2.56716428438452     -0.27319205796659
  N   6.38680654655873      2.54305391633325      0.29632594393033
  C   7.03760144918664      3.81190283532205      0.40959717063432
  C   6.46496808899886      4.74716290672237      1.44674678248536
  O   5.49830604947252      4.55408054622265      2.12401681329835
  N   4.57738773597611      1.27645747454463     -0.39437100561747
  C   5.31073302727005      0.18727648865808     -0.87884408285274
  N   6.27260515771155      0.24187868093519     -1.72216180643600
  C   4.91749626236914     -1.09159696337179     -0.31357406997834
  N   3.96324479218600     -1.23481450690766      0.56896987350058
  H   1.66551796573468      1.94068445703500      1.18452219700277
  H   3.06022950811087      4.69029761009995     -1.46858117802313
  H   7.01459365447045      4.38748533013213     -0.52915933636516
  H   8.09195256987246      3.66998171000480      0.67606443981028
  H   7.04479547738119      5.69229558318346      1.54972554778404
  H   6.46872014142111      1.20304855379213     -1.99197719884352
  H   5.49115848000469     -1.95830797849793     -0.61473833287858
