25
Coordinates from ORCA-job 8615optt
  Br  1.05337406244642      0.13286979117210     -0.14465790983309
  C   2.95424978909470      0.07169166024532     -0.04709502677140
  C   3.62062678649314     -1.18057431345140     -0.01416251105745
  C   3.02973888536515     -2.45246803409568      0.00604532725586
  N   3.66172208004361     -3.60152478292395      0.08206092519175
  C   5.04231229871430     -3.60197346637268      0.12879491243672
  N   5.75031172270450     -4.68185531680385      0.28997616220475
  C   5.74404966875059     -2.33650220340240      0.01747019883592
  N   7.15218575823438     -2.40625889809971      0.09032084795234
  C   8.00698463276667     -1.91167056691685     -0.85987170752113
  N   7.76594271844220     -1.15658519803542     -1.85758638055218
  C   5.05793889591668     -1.15429364370121      0.01777773966665
  N   5.69656689235252      0.06853895290732      0.06024062633014
  C   5.01987716137873      1.28450856285562      0.04725693222027
  C   3.62648788653046      1.27223940059062     -0.01423830990983
  C   5.77695362468431      2.46510119634129      0.09811056758737
  C   6.44451606920250      3.47256545720372      0.13965078675905
  H   1.94551863703290     -2.50683387756502     -0.03713624263711
  H   5.10906024542204     -5.46626190454737      0.37639047882358
  H   7.43876756945850     -3.28312431060666      0.51566107583219
  H   9.04124298966590     -2.19957410264788     -0.66723152366625
  H   6.76358996109207     -0.99553781791038     -1.95905641640760
  H   6.70471236591558      0.08283500876019      0.04932229724197
  H   3.09825030842886      2.21312592949568     -0.03432052342642
  H   7.02801898986322      4.35956247750861      0.17027767344388
