25
Coordinates from ORCA-job 8616optt
  Br  1.82787035995068     -0.96828802640411      2.37482662739173
  C   2.83446239240273     -0.00536742629568      1.05995044350790
  C   2.23479789588904      1.02289488939387      0.28213725586792
  C   0.85416196361265      1.14114514838697      0.10728348841472
  N   0.14317914886502      1.71305124099110     -0.83633849242037
  C   0.24062835707109      2.74329050977291     -1.65843190808767
  N   0.54535450217387      3.99511184646250     -1.47007327402492
  C   1.16043997926838      4.47830985668199     -0.35112521365823
  N   0.45901958288362      5.51522565963192      0.31229984953111
  C   -0.51651679819491      6.35977210169602     -0.16876898879560
  N   -1.09235043906844      6.41251662220781     -1.29630774213294
  C   2.40561008485399      4.19119160020627      0.09159660494979
  C   3.33949882064183      3.19653348868688     -0.40532328354275
  C   3.25189373506353      1.86244299146234     -0.34463725904672
  O   4.38661110321534      1.16966417401915     -0.79422036716873
  C   4.81880161514378      0.17318753215529      0.02133092306618
  N   4.10903185146557     -0.37411509791415      0.95472191536805
  H   0.26817988372408      0.50136275384936      0.76376346850392
  H   -0.18150876201476      2.54671741197786     -2.64624919301725
  H   0.84514643203499      5.77064630445690      1.20495332971609
  H   -0.80395922239011      7.08373937962199      0.59784452090094
  H   -0.72996658717048      5.67230769477632     -1.89807648891770
  H   2.82304295903698      4.88626943525399      0.81658317585428
  H   4.29688814571721      3.56625056222882     -0.76614932403871
  H   5.82768299582424     -0.14286065330641     -0.19759006822105
