24
Coordinates from ORCA-job 8619optt
  Br  1.13529982543267      0.15668400384708     -0.95359939754440
  C   2.90880556155972      0.85010295709123     -1.01651042551783
  C   3.24803575759736      1.96996749983189     -0.29391790157791
  C   2.37638717369958      2.74728029422464      0.51425752169117
  N   2.91946736162895      3.75010803111828      1.16772539035583
  C   2.34459246609545      4.74598414143319      1.85098592553669
  N   1.20710123578774      4.89750919717774      2.46355566273632
  C   3.30207402996648      5.89820346812966      1.85497973415947
  N   4.06131036862391      6.18306594655734      0.87830156397908
  C   3.98002354317006      5.61214574219473     -0.39374542897012
  N   4.45511119956525      4.55636701861657     -0.90824885329790
  C   5.14759284460448      3.59977724480522     -0.15105416147946
  N   6.27430265793613      3.79525673243184      0.41030690783499
  N   4.64644003409068      2.28925312827273     -0.25871232648376
  C   5.51685041025165      1.24141879570463      0.07878089313616
  C   5.37450561991741      0.03758550257251     -0.46603404990206
  S   4.12212719406911     -0.21030883169597     -1.68375376869597
  H   1.30652439856913      2.54910379185063      0.47372428478223
  H   0.65924085406697      4.04169694153064      2.37326431248294
  H   3.35029232143654      6.53061879476861      2.74157878607951
  H   3.49252158277534      6.30241165269062     -1.08544279627425
  H   6.52008743914952      4.77690487905197      0.32697335076714
  H   6.28719300797709      1.48213137901911      0.79877911826652
  H   5.98911311202873     -0.80526831122497     -0.18419434206440
