29
Coordinates from ORCA-job 8624optt
  Br  1.43596579876941      0.72380395407969      2.33880543547549
  C   2.10536962157384      1.07998321403470      0.54147207394084
  C   3.33251017929021      1.80143748876034      0.41900869127703
  C   3.51191417208483      3.05339514988201      1.22770572015606
  N   2.24568899173762      3.84360759335462      1.29535980830845
  C   1.50907538844555      3.98573584944122      0.13083452411614
  N   1.95254394150700      4.18400728627139     -1.04132789905529
  C   -0.00086440541204      3.89157865173208      0.31527869315077
  N   -0.68502685623192      3.44273403542288     -0.87387567613706
  C   -1.05971992330846      2.17370194580891     -1.22183638478460
  O   -1.46335825786801      1.94455277280398     -2.34713121060079
  C   -1.03026293185229      1.06268340848867     -0.18623743237994
  C   0.05080262171697      0.01220275632018     -0.50856607099783
  C   1.44186208304925      0.59317907172730     -0.54768898161682
  N   2.01156322353574      0.68054615838035     -1.78042936054716
  C   3.25929435232818      1.19265018934736     -1.79908992807534
  N   3.93185566703424      1.75498039110502     -0.83230038939322
  H   4.30785524992061      3.64922504530186      0.77813920467781
  H   3.77525235431351      2.87129806929249      2.27273864407478
  H   1.67342907105919      3.48923402437267      2.05003875634700
  H   2.97012381469442      4.15556569458341     -1.07356743087331
  H   -0.38865853895533      4.87700032221017      0.59258141112552
  H   -0.22286084011456      3.21846942606034      1.14162449227141
  H   -0.51802208367046      4.01562063274416     -1.69101159136504
  H   -0.89557739622026      1.42969847081478      0.82792509186477
  H   -2.00950291524066      0.58312459260784     -0.24321137658123
  H   -0.14842252368764     -0.40907440657190     -1.49287063740669
  H   -0.01850573415949     -0.78174705763025      0.23840294917699
  H   3.75467587566051      1.15580526925366     -2.76777112614873
