27
Coordinates from ORCA-job 8629optt
  Br  1.26672727154933     -0.35432029341988     -0.55216837739970
  C   3.06667461385373     -0.82116072183985     -0.07043991305549
  C   3.37894858478302     -1.72341710792315      0.88792666731686
  C   2.40415019491332     -2.68142630688096      1.52309772930233
  N   2.66805507088040     -4.03864703657161      0.96986893635463
  C   2.65279306452840     -4.10547042334929     -0.43063343033089
  N   1.65128707693396     -3.86606263018436     -1.16810235266760
  C   3.95506865888249     -4.45141770237510     -1.16366642531161
  N   5.07892746979200     -4.85208390583803     -0.33345253371976
  C   6.34353120376692     -4.29113499651612     -0.28474574072131
  O   7.30450682395364     -4.97257819935574     -0.00902682924030
  O   6.50137930954109     -2.98029705820372     -0.53195230360010
  C   5.47718236442979     -2.05426521980555     -0.26284454043420
  C   4.75278694405565     -2.12936406146974      0.93288011385849
  C   5.10385782748379     -1.19128171909080     -1.30973808480527
  N   5.54526951213009     -1.07868814362040     -2.53031166179944
  N   4.05745611204214     -0.30811178155604     -0.90552016542349
  H   1.36768156898385     -2.40416582982221      1.33886200830423
  H   2.54678991491524     -2.75502854810952      2.60266554933140
  H   3.59352186423371     -4.31180507966661      1.28075063924146
  H   0.84328184734961     -3.59489025785187     -0.60840963568558
  H   3.72957588321254     -5.24519755725642     -1.87738242803388
  H   4.22166787013636     -3.57248916577315     -1.75110678544737
  H   5.16729075287694     -5.84370947808264     -0.17478278237534
  H   5.10703557534048     -2.75728844621680      1.74256878853772
  H   6.33279909010546     -1.71051838771856     -2.65361998873438
  H   3.76475352932597      0.30482005849815     -1.65071645346141
