22
Coordinates from ORCA-job 8631optt
  Br  1.50579784717952      1.32072691720847     -2.33969931061128
  C   2.81797315982895      0.61434863854598     -1.16324314453517
  C   2.68485270267113     -0.71218590183840     -0.70218224193562
  C   1.53592651203779     -1.49673310249423     -0.92440884272682
  N   1.17261759059625     -2.65864161700047     -0.40825616688234
  C   2.02984545767139     -3.51323311504087      0.19280275135654
  N   1.62975949784316     -4.41894061580320      1.02184319111202
  C   3.46858766234997     -3.49536703732231     -0.21512266286656
  N   4.26494910737590     -2.51272217680377     -0.22327748718155
  N   3.71098948333771     -1.26592249794303      0.13898826284693
  C   4.68034775222762     -0.38629337120645      0.57080676831003
  N   5.67095992263262     -0.65709030805623      1.40514648351773
  N   6.28179307290400      0.51656570431420      1.50576850692273
  N   5.77561971037748      1.51591374919217      0.81471343059865
  C   4.74386808408972      0.96019550775353      0.19421569692208
  C   3.81872234749093      1.55922596521811     -0.76914540223657
  N   3.90097733482266      2.77870632557951     -1.19480520541546
  H   0.78731553489041     -1.03225382425485     -1.55154027452120
  H   2.41776910553207     -5.00749736405591      1.28792928463919
  H   3.91430799288556     -4.44747980947218     -0.49657060554135
  H   7.09951821442542      0.63114969116589      2.07704022478267
  H   4.69750190682967      3.22652824231407     -0.74500325655467
