23
Coordinates from ORCA-job 8634optt
  Br  1.84074325754858     -1.39265218296666      2.98051151916795
  C   2.43187811500606     -0.49097343099061      0.77517896203606
  C   2.43721344189429      0.80911526680279      0.34096507661502
  C   1.46597305571331      1.70270232803826      0.94199394779159
  N   1.37338207627083      2.97688894307100      0.87934272520100
  C   2.20577484383119      3.73614767584131      0.06827969245002
  N   2.71072985621970      4.82556478860660      0.48518075288713
  C   2.38769907272448      3.21451624553458     -1.34177172216776
  N   1.78658658466983      3.71156788995384     -2.34887515263114
  N   3.32879775722806      2.21982656125027     -1.48252658071689
  C   3.38521786437679      1.19761343606366     -0.70434874537405
  N   4.45692736394827      0.32393542098908     -0.93896116364431
  C   4.40578876718592     -0.84028569881753     -0.44251895313571
  N   3.40070496848776     -1.32857742927912      0.32804714082795
  O   5.39138029498221     -1.76708237823971     -0.62554719449312
  C   6.42409185843312     -1.47153172235998     -1.47823071393870
  N   7.39026910827508     -2.24987503592659     -1.64446361514968
  H   0.74885124565728      1.19259687503832      1.58279188601060
  H   3.25261868709987      5.25084018853885     -0.26597623311039
  H   1.18023575601046      4.46825205112577     -2.03654058290631
  H   3.46322878673398     -2.25844027410064      0.72108134274535
  H   6.31859809263025     -0.51807564011843     -1.98299751105402
  H   7.28830914507253     -3.08307387805506     -1.06361487741057
