27
Coordinates from ORCA-job 8639optt
  Br  5.89487876251747      4.90709410367235     -0.52259424714514
  C   6.43431827358249      3.73838012007602      0.90136441069008
  C   5.98856669771391      3.94424630480293      2.21041811803516
  C   5.96290945713335      2.62643010942200      2.95518856509021
  N   7.23888466105483      1.92575758180126      2.77774295042748
  C   7.74183312633193      1.99904972521832      1.48837430834573
  N   8.92446600642540      1.25687943312539      1.25268124962521
  C   10.12935574231193      1.56624377046989      1.85974260203878
  N   11.20743612178197      0.90072167162901      1.79078430397389
  O   10.10218135796211      2.68024938699857      2.64743566285336
  C   9.75480364922772      3.85907199475993      1.97611622071502
  C   8.92234521670429      4.76320749773191      2.48056973119993
  C   8.55471834190238      5.98363825744286      1.78020206590488
  C   7.36646252261327      6.62678928825838      1.89618291728816
  N   6.30808131275667      6.35392754560483      2.71840486661353
  C   5.84418348012214      5.14374346803233      2.93589237692897
  N   7.23036858399488      2.72702489794987      0.53145603402589
  H   5.79096121032117      2.77157845663629      4.02127303256885
  H   5.18285956949050      1.96058818178493      2.57091256988701
  H   7.93611224505539      2.08789579846777      3.49608422627799
  H   8.98803556060139      0.80287150902971      0.35479484523446
  H   11.04681026489997      0.04035631649460      1.27321255458521
  H   10.21518739729409      3.95566629737352      0.99866217237514
  H   8.44824453687337      4.56046807493594      3.43642716150160
  H   9.26296056388553      6.38239632354300      1.06325230558696
  H   7.25711818154160      7.54384438053394      1.31896977095694
  H   5.23991715590004      5.05587950420432      3.84444922441466
