23
Coordinates from ORCA-job 8641optt
  Br  4.26586124612426     -1.14867462135408      3.47997441306914
  C   4.57903690628043     -0.17105058859017      1.13192980345188
  C   5.35826811954378      0.82920695119405      0.65030791879676
  C   5.70315329129980      0.84014778423514     -0.75774647390626
  N   6.22734829178881      1.77038739965413     -1.47233998079731
  C   5.53711872076134     -0.49607598259870     -1.35393684939993
  N   6.29387591847086     -0.78163853027884     -2.51175425869429
  C   7.60065204851266     -1.31899009641365     -2.35115624585815
  N   8.22847855414668     -1.87161671047164     -3.29680684974456
  S   8.57587085865816     -0.95983382152458     -0.87440665479153
  C   7.62267502428644     -1.56527340755039      0.47314620577676
  C   7.38659038846477     -0.92503994778080      1.61791029981089
  S   7.77054649479588      0.75943703075002      1.99834844103701
  C   6.23953038468816      1.64750986265235      1.52241342382064
  O   6.14675851738455      2.80188755583554      1.81211610789783
  N   4.82416662873139     -1.44393780997841     -0.85805204245063
  N   4.23466394317624     -1.18545349483557      0.32482376239205
  H   6.33541188827423      2.62651657620682     -0.93121970363232
  H   6.38508794375005      0.08217018034389     -3.04509592325233
  H   7.61765766126738     -1.91937972649413     -4.11477798293928
  H   7.27717077467471     -2.58903380608775      0.37593015605552
  H   6.85788946340574     -1.45301281655123      2.40444568785487
  H   3.72018693151339     -1.95925198036201      0.71694674550325
