24
Coordinates from ORCA-job 8645optt
  Br  0.70320309013339      0.50671502494827     -0.92917113053018
  C   2.97138364558890     -0.10262720145107      0.15460470360814
  C   3.64019468356665      1.07107185076204      0.44929026445497
  C   2.94012803195828      2.34859051743513      0.81978840705771
  N   2.90216563048932      3.26191457847675     -0.32695012077318
  C   4.03526650092253      3.51035557454279     -1.06324459054179
  N   4.06580586723693      3.93038393499941     -2.26803594713355
  C   5.40434181336114      3.40606774352548     -0.39592208118637
  O   5.62400058477358      2.37168636556752      0.55741064405568
  C   5.02378618748260      1.16256348955459      0.27715727365235
  C   5.78622099773297      0.08271413835794     -0.14062018344910
  C   5.10552914360328     -1.09968531973513     -0.39581704034488
  C   3.72445535662364     -1.17482566433030     -0.25774619065716
  O   3.18840599919773     -2.41529827010669     -0.56833417139194
  C   4.09299127605176     -3.32526627203850     -0.95325733067931
  O   3.82464656539524     -4.44532070387763     -1.26405038739702
  S   5.74068035125278     -2.63972245132713     -0.92987776505085
  H   3.44897344474884      2.83700073968980      1.65189121813709
  H   1.91107921611740      2.13898637064424      1.09559434138677
  H   2.09456312940973      3.06020424710136     -0.90981633995484
  H   3.12126346907617      4.03308243866413     -2.63907975243851
  H   5.59708666138789      4.33919527808233      0.13704617591772
  H   6.11912877909769      3.31461806736682     -1.21467476430319
  H   6.85569957479147      0.17759552314781     -0.26518523243855
