25
Coordinates from ORCA-job 8648optt
  Br  0.90726107779483     -1.39686085493177     -0.79296604405419
  C   3.04015089833699     -0.01809373039302     -0.16107208131053
  C   3.57686085234287      1.21048825156194      0.09784218829113
  C   3.02336677439884      2.54396451129159      0.32523917013946
  N   4.15001973442500      3.34232860320209      0.50068067711144
  C   5.34158893467847      2.62080918531432      0.40613988082495
  N   6.58139704784775      3.25867809127250      0.55090262931726
  C   7.47248501493252      3.41985030577308     -0.46368510458105
  O   8.57962840799636      3.88950365274680     -0.33515240080453
  C   5.03104822201825      1.32551589637646      0.17066873301016
  C   5.79173264672513      0.12269932592837      0.00864617039671
  N   5.24367445340553     -1.01920045933358     -0.22147372527212
  N   3.88565053590928     -1.04946153813226     -0.31003648810241
  N   1.84340238556843      3.04319241972976      0.38088526577907
  C   0.74294632054371      2.12849693062187      0.21378029436273
  C   -0.53775466386623      2.91704182765905      0.24225775370116
  O   -1.59844796134541      2.52489605334955      0.64961611766272
  H   4.08001141873090      4.33891021557921      0.61060757083777
  H   6.89613508874135      3.56118248700623      1.46440887353685
  H   7.07072038901484      3.06213194034763     -1.42502625475190
  H   6.87470009133119      0.12178868980088      0.07277562097044
  H   3.49355078737490     -1.95393827514015     -0.52570278163618
  H   0.70110079389390      1.33310023455258      0.96810346420958
  H   0.76958917966387      1.59726746025466     -0.75235910454456
  H   -0.43181843046344      3.94370877556213     -0.16608042509396
