28
Coordinates from ORCA-job 8653optt
  Br  2.28132825114819     -3.97591697868601      1.75594117095766
  C   3.96689082978906     -3.15239761468100      1.17443787638249
  C   5.16557767809426     -3.68108616190293      1.71877001799980
  C   6.26604333350938     -2.76405090168123      1.52436300991874
  N   6.32695510023398     -1.89265955916786      0.56241255405290
  C   5.31825993971905     -2.09980923629685     -0.40542771621120
  N   5.81358592994106     -3.06227563956811     -1.33222225315580
  C   5.19191562172450     -4.14565965726834     -1.47606745372592
  O   5.80168847929587     -5.25326864640197     -2.00994879817441
  C   5.50166835872328     -6.47827748005833     -1.32858730237783
  C   6.36319756445411     -6.74455881341147     -0.04355386760754
  C   6.73127974444895     -5.43679973217536      0.63109263168345
  C   5.40139413835175     -5.14557652516764      1.34889574951107
  C   5.26698008260785     -6.46749546318136      2.10907182954742
  N   5.64609367858098     -7.46058652275850      1.05175695556889
  C   3.98292676422717     -2.24554909217257      0.17394607380738
  Br  2.48739178267707     -1.27086273597713     -0.50866024006522
  H   7.13025665342151     -2.80633067375755      2.18954185268581
  H   4.17320143489546     -4.33105666174946     -1.12574739903022
  H   5.68068856529386     -7.26233227471541     -2.06456494077993
  H   4.43662128270525     -6.49864639636921     -1.07241075874741
  H   7.23802971900957     -7.32789737478411     -0.33931578380610
  H   7.52295714052825     -5.60206178164327      1.36777266516047
  H   7.06175943709833     -4.66716190578920     -0.05787758944819
  H   4.62981367158514     -5.30899469072824      0.59791831591526
  H   4.25280330112009     -6.65305477417172      2.46201173238462
  H   5.95452244239045     -6.54585999773280      2.95612873528016
  H   4.82116907442549     -7.93177270800230      0.70332293227362
