26
Coordinates from ORCA-job 8658optt
  Br  1.27590143184633     -0.25681486015004      0.49307777926952
  C   3.13407735024405      0.01886393815621      0.08521352868852
  C   3.65426703862926      1.27981150831942      0.06479523336151
  C   2.89373664378148      2.53290491538338      0.38813357393465
  N   3.51142413621319      3.65963210051193     -0.29288962695819
  C   4.89302458551354      3.69630288652468     -0.23821370948957
  N   5.51515864622909      4.90805600235060     -0.31489765733972
  C   4.97661085625914      6.15708678873496     -0.18647473121746
  O   3.77440413562923      6.37523278318484      0.10642615733778
  C   5.86201334365942      7.33536626016375     -0.48970196683516
  C   7.34853418352043      7.23504815873290     -0.62974786661157
  O   8.02033852046596      6.23532778591080     -0.57177492122837
  N   5.66120000156951      2.61722291108632     -0.24344562296854
  C   5.06381721708703      1.41502188063320     -0.21111826758543
  N   5.83779739579938      0.31378975617898     -0.40601984476669
  C   5.26522187623491     -0.87360343531950     -0.37274481267678
  C   3.91381634224309     -1.11797936388744     -0.14698408956433
  H   2.88023791611801      2.67782355502543      1.48073133072265
  H   1.85854608541037      2.45077908944408      0.05918557413567
  H   3.10603340607687      4.57122230545461     -0.09701056807015
  H   6.51876125630998      4.84176035800432     -0.44179115942110
  H   5.67802761625574      8.10237460409722      0.27387737972369
  H   5.52047624652038      7.81587431475502     -1.42169850224126
  H   7.83890085591752      8.21336794625405     -0.81227817967267
  H   5.92734493469321     -1.72157156184928     -0.53743458613046
  H   3.50032797777269     -2.11390062770054     -0.13321444439655
