23
Coordinates from ORCA-job 8663optt
  Br  1.26793388272718      0.16015295508662      0.09572040488589
  C   3.16407803251373      0.05478082316815      0.10987168522721
  C   3.82214092272518     -1.18183760222531     -0.05006097210838
  C   3.20092514761266     -2.44265234688567     -0.15184600196696
  N   3.79983396302851     -3.60685108536606     -0.16641943441559
  C   5.17174045674192     -3.65967758734453     -0.02712533120755
  N   5.84964588194062     -4.76316379387312      0.00905025019234
  C   5.88850350551401     -2.39650445556303      0.07976780621453
  O   7.27145518307833     -2.50829826455885      0.18639567128690
  C   7.75067827559243     -3.03503072569007      1.32826010034949
  O   7.17930216162466     -3.11264665783941      2.36838604284484
  C   5.26155400710544     -1.19412161995897      0.00661028103984
  N   5.93535340354924      0.05775585167086     -0.01797455878012
  C   7.18408238504005      0.21763554993794     -0.56958186410522
  O   7.76500743779891      1.28351528614294     -0.60629021630722
  C   5.23892375000641      1.21821917863189      0.36838465707950
  C   3.87880896375341      1.22211390025004      0.39855072338969
  H   2.11728613957091     -2.46230640990925     -0.22208524456211
  H   5.18671234805494     -5.53124296950540     -0.07273855180059
  H   8.79008834395921     -3.34085877760790      1.15915282242107
  H   7.59560659509265     -0.70128685003657     -0.99001314892830
  H   5.85979045017117      2.08256376923291      0.52831814205406
  H   3.35854876279833      2.13674183224282      0.64366673719670
