25
Coordinates from ORCA-job 8664optt
  Br  2.43682691310064     -1.03083123166995     -2.98252814122166
  C   2.98625872762355     -0.23538181704338     -1.36817652877567
  C   3.00350928773622      1.09794964896862     -1.20312969461229
  C   2.51297093984255      2.20710704337399     -2.08752437547163
  N   1.23934028757985      2.74978948498483     -1.58436532270749
  C   1.36464760888832      3.32627905457300     -0.26433612641513
  N   1.89598167302041      4.50950370544735     -0.07997647735288
  C   0.97528902678014      2.42975907313583      0.78174863332885
  O   0.53948896476569      1.26499748001169      0.52767884587193
  C   1.30706068640714      2.77646225629957      2.21476232262009
  O   2.08420533928564      1.74725286460149      2.85146138510961
  C   3.37888209118178      1.55985135084513      2.35400217257785
  C   3.41642218205450      0.77054468379252      1.05845281428584
  O   3.41291514978301      1.59052643856365     -0.00949513244621
  N   3.45115780053923     -0.49670360594099      0.99430679217598
  C   3.38683792037447     -1.12120755351860     -0.26653666701284
  O   3.61753462865148     -2.29961919274698     -0.40111437241772
  H   2.38246293771317      1.84361848209206     -3.10421289396885
  H   3.25296036729104      3.00993051959932     -2.08434846118625
  H   0.60163522786594      1.96154385146864     -1.47655584274105
  H   2.07737357361903      4.93103709967659     -0.98954260314781
  H   1.84012762246798      3.73008417838208      2.26230779801425
  H   0.40274846362807      2.82558255499779      2.82506882525059
  H   3.92399623778351      0.98698005347951      3.10292702406339
  H   3.87636634201661      2.52194357662624      2.17612602617911
