21
Coordinates from ORCA-job 8665optt
  Br  2.40986302141555     -1.66226659590349      0.62153333976268
  C   3.28335957374005     -0.11407655617219     -0.06963340139123
  C   2.63111992265692      1.13501492731628     -0.03226824409180
  C   1.56103905310020      1.49266677206670      0.78129001355754
  N   1.24246218003892      2.76812429781279      0.80793555815581
  C   0.34651998156447      3.45385842034930      1.50651630117782
  N   0.25967429937300      4.73916685423617      1.28801387808236
  C   0.98518706594982      5.09865806070811      0.16176594230143
  O   1.70860394640217      6.05811515323403      0.04217497641732
  C   0.66470034687171      4.25002539221538     -1.09280122105449
  O   -0.43341200351005      4.27001601047208     -1.56544292530180
  O   1.62204315291551      3.54501946488214     -1.75325667923427
  C   2.92208397038182      3.28702162655711     -1.38948322131935
  C   3.35783841704062      2.16709720059027     -0.78994361422204
  N   4.73961921998027      1.89603894053317     -0.78681191658269
  N   5.26326258408240      0.64503577968407     -0.88549543421190
  N   4.49746942173803     -0.34322190741086     -0.54101225146009
  H   1.07696711646659      0.73569254616084      1.40205855580989
  H   -0.30480953418906      2.99902796948833      2.25956863588058
  H   3.63492705967623      3.98706907106345     -1.81183797568460
  H   5.34648120430480      2.57091657211629     -1.22487031659117
