20
Coordinates from ORCA-job 8667optt
  Br  1.20627665512041      1.00361167286104     -1.72049356945120
  C   2.81331457937828      0.33749454925009     -0.91247074048765
  C   2.88636396225351     -1.02201018269379     -0.49062814381509
  C   1.78115926717247     -1.88297016166995     -0.52499642876054
  N   1.60945737176884     -3.07045457345562      0.04155224562320
  C   2.60087415475032     -3.82901814049087      0.52598505595023
  N   3.88083942898702     -3.84382714085427      0.29500920617700
  C   4.54729955494202     -2.83207090102171     -0.31084587958694
  O   5.48965837873372     -2.94152982625360     -1.04043313497820
  N   4.10316697358373     -1.45644035020848      0.05710174041690
  C   5.08201527354928     -0.50370897979480      0.28347483290741
  N   6.23406157400481     -0.68460609519122      0.84040908137092
  N   6.81037439773325      0.58429280162748      0.81227376243426
  C   6.07199305366832      1.57394466232699      0.20631989235169
  O   6.40579974854685      2.74181641287824      0.05815032576793
  C   4.85318217409404      0.83980136738827     -0.14732160297961
  N   3.74806731840759      1.23580764959768     -0.76148994681212
  H   0.90223352083498     -1.48496887707458     -1.01384784762533
  H   2.24637131369036     -4.64929589180014      1.14832451021649
  H   7.76149129878014      0.68713200457925      1.11492664128066
