25
Coordinates from ORCA-job 8668optt
  Br  1.30013025285168      0.30140706952737     -0.01137211663436
  C   3.05596888670388     -0.19690558276506     -0.56399277028990
  C   3.64558594131584     -1.36606724436037     -0.07534547276721
  C   2.96972203657520     -2.47693203942689      0.42208731596180
  N   3.50408578107894     -3.67755472570632      0.61166838679750
  C   4.79084251240205     -3.90206199282885      0.23200656187885
  N   5.37212807335643     -5.05537739931539      0.26493005856342
  C   5.65675716210710     -2.74912725693177     -0.24054716583481
  O   6.82756714658352     -2.88753174312235     -0.54556007245573
  N   5.05032784932603     -1.50925003477973     -0.24772753701419
  C   5.79058494971293     -0.29630173145680     -0.36341790391474
  C   7.26809660156388     -0.24351312905994     -0.06410869029108
  C   8.14346987158961     -0.44615773193071     -1.29669299977002
  C   8.29635083556613      0.77460062396526     -2.15041182588860
  O   7.93934022062327      1.88630218683387     -1.86022875584367
  C   5.13606759143579      0.83194294591572     -0.63108857571922
  O   3.79925569377513      0.92327626851172     -0.87616638964583
  H   1.91569305759333     -2.36626774671853      0.64675943410087
  H   4.67817896283436     -5.71543310613880      0.61822111327595
  H   7.51679444097457     -0.99285548449205      0.68224101752381
  H   7.48245614590998      0.74043109124120      0.35579604962806
  H   7.76713284628188     -1.26662408026502     -1.91129011787655
  H   9.16097999745105     -0.75052326370981     -1.01920337521616
  H   8.80389595540523      0.60392654288537     -3.12240548808962
  H   5.64058718698208      1.78459756412787     -0.68915068047857
