23
Coordinates from ORCA-job 8669optt
  Br  1.03726185959953      0.20195746648220      0.04839685652969
  C   2.90745953646117     -0.04824285240711      0.09895803308898
  C   3.49903069213029     -1.20971709319518      0.36960843112289
  C   2.82947439992961     -2.54910350101280      0.54716833214256
  N   3.08058958277289     -3.38359956440223     -0.59173753607894
  C   4.33035734851118     -3.85030376030596     -0.69869646117374
  N   5.34474317162878     -3.56039342266639      0.28439883813713
  C   5.60962867713953     -2.40292899644000      0.90457199701915
  O   6.32807088220442     -2.25875117683303      1.86636754692514
  N   4.90976223348414     -1.24408673770819      0.33843206012943
  C   5.69710182429587     -0.21383524483656     -0.10186114694516
  O   6.89656549210332     -0.27838645125308     -0.23011835301735
  C   4.98407843238358      1.09006428412964     -0.41850990820140
  N   5.60637205008261      2.12978388784487     -0.79437187760404
  N   3.62942624461577      1.09148153676573     -0.22815609244103
  C   4.74416709764672     -4.73386820839485     -1.68806974935778
  C   5.10975454710869     -5.61344044161854     -2.46177774393946
  H   1.75826139348809     -2.38766326248376      0.64739798710138
  H   3.17944974914348     -2.98031904176464      1.50171639490983
  H   5.87605307675571     -4.33971924614074      0.64918932134650
  H   6.59613447716992      1.89381288006101     -0.85150762842700
  H   3.14533871088913      1.95616713556222     -0.41262454984633
  H   5.50991852045537     -5.98190818938256     -3.37977475142045
