27
Coordinates from ORCA-job 8670optt
  Br  1.10970380542213     -0.31579890872794      0.32179422211429
  C   3.02789074466593     -0.18042865946760      0.14820040575449
  C   3.66012219361625      1.03345843088421      0.45968791759671
  C   2.98669226169819      2.27501939546297      0.94247345030911
  N   3.12011004767065      3.42636813485463      0.03347774860064
  C   4.30367003022520      3.82226076442139     -0.48748370876421
  N   4.20214552321638      4.88503462677879     -1.43664154546317
  C   3.12593981481835      5.53238305705818     -1.92908384127958
  O   1.95971943036704      5.34589796873725     -1.64890505092323
  N   5.49947165602978      3.44638944617703     -0.28004736117388
  C   5.80724660164777      2.33380806034209      0.61912280691078
  C   5.07905291951377      1.04972670011316      0.30958349065967
  C   5.76111568694409     -0.06074362421087     -0.10945756575088
  C   5.10496237618450     -1.28744229017013     -0.40794990782876
  C   5.82430102712174     -2.44094343691222     -0.82113966471191
  O   5.33866422386090     -3.55764888317446     -1.09298024700475
  C   3.68312839062103     -1.30806247280544     -0.26641605526666
  H   3.37488759593068      2.57917021269606      1.92049128951104
  H   1.91999314040589      2.11175365543125      1.06570327804189
  H   2.29189775551324      3.80112831357261     -0.40441472376616
  H   5.11226818678552      5.13798248507197     -1.79058983082159
  H   3.42316081153072      6.30211907172916     -2.66040365818890
  H   5.61881827879746      2.63815316955910      1.65650537878303
  H   6.87926504248268      2.15478160361404      0.54012799670516
  H   6.84092999102199     -0.00912291561399     -0.21931934200964
  H   6.92067834835307     -2.28999970230509     -0.89596805745671
  H   3.15316411555500     -2.22224420311617     -0.49236742457677
