21
Coordinates from ORCA-job 8671optt
  Br  0.71479692659253     -1.01256132592687     -0.79702025729830
  C   2.81466078985092     -0.29322532834435      0.26543497508306
  C   3.59220881592690     -1.36156810673431      0.64338209917557
  C   2.95605159855939     -2.62564891444257      1.14212334380809
  N   2.92616045541091     -3.66019236379605      0.09980206305768
  C   4.08427845410854     -3.81759288816763     -0.64328433211538
  N   4.19222900294397     -4.13554910980773     -1.86167999698673
  C   5.39428023919807     -3.65214961741489      0.12737277274588
  O   6.10663582303315     -4.56692770508042      0.38202774212187
  O   5.75730435930351     -2.39124286377422      0.47647117257465
  C   4.93873497848960     -1.29626401918515      0.24380657503210
  N   5.53525447730601     -0.29018519705545     -0.30998667219464
  C   4.79987091121772      0.83055397318511     -0.59598736631772
  O   5.23923469647457      1.85382194714275     -1.07392413174761
  N   3.41264059421952      0.74386741576856     -0.31762558711537
  C   3.56696793624766     -3.14515835371164      2.38114999364009
  N   4.01523889362490     -3.53441748457080      3.36106069831872
  H   1.91750135631336     -2.39290031876817      1.37839738879906
  H   2.10862241545534     -3.51457359640770     -0.48777900129948
  H   3.27554180206551     -4.20385753857581     -2.30552527823654
  H   2.86678547365778      1.53777139566740     -0.62421620104502
