21
Coordinates from ORCA-job 8672optt
  Br  1.57931499571789     -1.54823364930822     -0.61591787277558
  C   3.04263832638800     -0.37316564047606     -0.40329803489792
  C   2.93205212299798      0.94373767366030     -0.10696537439000
  C   1.72991539209209      1.70268193666043      0.04996659388649
  N   1.91680915550992      2.91797748133004      0.50330108157930
  C   1.36597770383085      4.08061944041036      0.21956108461185
  N   2.12354764394231      5.18344549946983      0.24915901445114
  C   3.46040539315228      4.95099095344209      0.21737395142737
  O   4.34062930160942      5.59051564028865      0.72789504368457
  O   3.84286572810571      3.85597126960034     -0.64282597852708
  C   4.60865783889801      2.89377102791201     -0.08511745866166
  C   4.25434846155269      1.60108689955740      0.06311831122496
  N   5.32336803415435      0.77108253981379      0.51354367987180
  N   5.34302956095322     -0.43627757817212      0.25968033586275
  N   4.29758825546194     -0.96529543495273     -0.49589292410280
  C   -0.01950731067604      4.18175380016091     -0.17038711513696
  C   -1.17901293407801      4.16750219457454     -0.49007330350904
  H   0.78585339458493      1.31708998022414     -0.34320968238591
  H   5.60065758053912      3.19155622753746      0.24245530073417
  H   4.32551124605766     -1.97172503926575     -0.46149601467459
  H   -2.20264989079438      4.17391477753256     -0.77487063827287
