24
Coordinates from ORCA-job 8674optt
  Br  1.66593273122352      0.03969666431525     -2.01165938303720
  C   3.12371147004391      0.11582750987197     -0.76482873355712
  C   3.59524976548022     -1.05958086204776     -0.14788378353167
  C   2.76707546541177     -2.32343179681923      0.06394443946538
  N   1.33329325068338     -2.21834466254666      0.11173196983222
  C   0.73790769821778     -1.56056574186695      1.15286213830314
  N   -0.43862630528854     -1.08543605973240      1.21667193916854
  C   3.16207836508758     -3.29478766238267     -1.02108981837937
  O   2.50377204942558     -3.60942926323357     -1.96406668486124
  O   4.40872765412740     -3.83027566691678     -0.86363478976330
  C   5.28565724368005     -3.47992695347660      0.14347454500852
  N   5.52501725809898     -2.37116895930789      0.68073233167537
  C   4.91250865359489     -1.13709427155799      0.38631045969766
  C   5.68551173114026     -0.03267027628262      0.63682149561973
  S   5.08198776842731      1.58240058780355      0.46196119377691
  C   3.74815378462804      1.39094553658120     -0.73744752106900
  N   3.39489304257139      2.42175776615494     -1.42622216030141
  H   3.09049787681153     -2.75964194824929      1.01482697413805
  H   0.88677585853737     -2.14242633451836     -0.79185827722368
  H   1.37681993149585     -1.49402471267143      2.03524246495490
  H   -0.91293270362585     -1.17563344990615      0.31683590869799
  H   5.87310845530233     -4.35327487142048      0.40681654569251
  H   6.70898749500434     -0.13708498057153      0.96485800304394
  H   4.00089145992086      3.21217040878146     -1.22439925735088
