21
Coordinates from ORCA-job 8675optt
  Br  2.50054898607646     -1.22865217067769      2.78380958813407
  C   3.29359788813984     -0.61706127136319      1.19158494452266
  C   3.13299668622629      0.68693270769705      0.75722701814980
  C   2.34035336258476      1.73286363361261      1.29827419721300
  N   2.36754638532349      2.78521367268870      0.52523764170488
  C   1.72729983063210      3.85401280334704      0.07934520551029
  N   0.84741952167125      4.61044032441754      0.63169510094750
  C   2.14062841857349      4.00299635081337     -1.39669156532535
  O   1.64842153112476      4.77506325754652     -2.16449760218199
  O   3.01989405663462      3.05615435574326     -1.80776807229423
  C   3.89424254576429      2.53039406712747     -0.83579539530700
  N   4.93447441681847      3.22720715922145     -0.61422956745543
  C   3.82336454580444      1.05994464476943     -0.47686913469274
  N   4.50879541383289      0.23421996932914     -1.18136569622225
  N   4.55503045391113     -1.03620373702126     -0.75123226709939
  C   4.03094259002048     -1.57619748061790      0.41967909343614
  O   4.22454726736602     -2.75739231425537      0.67415434305162
  H   1.74653769991207      1.61622508708379      2.20112392684505
  H   0.56302731354110      5.30759840809286     -0.05741921385131
  H   5.58951888850357      2.70137002296899     -0.04291043429733
  H   5.09081219753841     -1.66912949052385     -1.32335211078801
