20
Coordinates from ORCA-job 8677opt
  Br  0.98943409343816     -0.14680260542699      1.19478773466422
  C   2.73067055286085      0.10608690067667     -0.24455674331412
  C   3.42768836640824      1.30940854262184     -0.21011922214295
  C   4.83169540813604      1.22878739963019     -0.15541281932865
  N   5.58078428812138      0.16830150670808     -0.13692729662404
  C   4.91404774171171     -1.04152793463821     -0.19836398083591
  N   5.46210127388407     -2.19992382926342     -0.21049497989168
  N   3.51002697855836     -0.99417468856295     -0.26477012534079
  C   5.43144190593172      2.65234010258870     -0.05345726600279
  C   6.41693761725593      2.94492465606294     -1.09289273146407
  N   7.19038498349228      3.21058169908327     -1.89603287818410
  C   4.18814546761733      3.49346055214340     -0.12289869621162
  C   3.06278298652475      2.71477025176205     -0.20021969858549
  N   1.87807869041475      3.39414317726607     -0.26927873742765
  C   2.10898744016378      4.66792846049231     -0.24224948552670
  S   3.77101803591801      5.14104047523810     -0.13518274689428
  H   6.46852279992815     -2.07019801230879     -0.16812766435452
  H   3.06801588131554     -1.90263898353980     -0.27312319980507
  H   5.93671037120700      2.72945176527620      0.91345467481997
  H   1.33652511711164      5.42204056419020     -0.28913413754975
