26
Coordinates from ORCA-job 8680optt
  Br  1.35179525402711      0.54674314014004     -1.85589056017995
  C   3.00783866282211      0.31532117025350     -0.94056137489456
  C   3.44335261733177     -0.83900130295342     -0.37882083394209
  C   4.76298554844300     -0.68736798578426      0.36413965399623
  N   5.43040233834091      0.47781483609708      0.37582498014285
  C   4.95972725124447      1.57336307000097     -0.23732960266453
  N   5.51027230671796      2.73760910964412     -0.32152274589416
  N   3.69266974523365      1.47823166516936     -0.86377272474302
  C   5.35693931212460     -1.78268894574188      1.15860285868946
  O   6.44793094065728     -1.78470426989627      1.71248654724807
  C   4.30541359041075     -2.87311032102103      1.10253936284591
  C   2.97780554113326     -2.43657946502937      1.74222356867031
  C   2.17653922013919     -3.00407070884425      0.59919831979945
  C   2.80829474194272     -4.44257990723764      0.53636745596417
  N   4.14658468129042     -4.33401976109174      1.24087469361926
  C   2.56391147646134     -2.09196261263012     -0.60274944631826
  O   2.14898671173653     -2.36098509287221     -1.70650705092949
  H   6.39720895777489      2.68512098529999      0.17161639921523
  H   3.32990937543168      2.32430038255704     -1.26904851336113
  H   4.19860998110421     -2.78439969680313      0.01859837237660
  H   2.85855233028556     -1.37005727228849      1.89313705995450
  H   2.84778972058207     -2.97086848918678      2.68289271312056
  H   1.08820052947833     -3.04595699823880      0.66839442203452
  H   2.91697754526477     -4.77289887742530     -0.50026719322506
  H   2.16980274707206     -5.15055899912578      1.06593582847858
  H   4.85049887294927     -4.81169365299159      0.68963780999656
