22
Coordinates from ORCA-job 8691optt
  Br  2.92355207906113      0.63777416024335     -2.17788589120321
  C   4.50043037216852     -0.06721877635956     -1.35852159636898
  C   4.45570203165374     -1.22713042539442     -0.62201387149454
  C   3.72803733874057     -2.42125788932477     -0.56576532067719
  N   4.12348239894272     -3.21612194359273      0.44210743137345
  C   5.10870323188232     -2.56426014338452      1.13135358160668
  N   5.78045790346275     -2.90114261318526      2.17024993475404
  N   5.35155930510813     -1.31747162168758      0.46355377854873
  N   5.75919376687920     -0.22037601252016      1.09540221211138
  C   5.82404393049199      0.86266972261739      0.41521942213067
  N   5.53855704327089      0.83700421693234     -1.02867500270449
  N   6.18986920792505      1.29002903799632     -2.15055086981453
  N   7.10611119981594      2.15191631252293     -2.14951600406686
  C   7.43085240845341      2.51652502189546     -0.82424622751670
  C   6.49130691722213      3.07085585159558     -0.05803711763159
  C   6.20663087891665      2.15588249553501      1.08933917873711
  N   6.29435800478810      2.28677614216520      2.34111443895587
  H   2.94796801467061     -2.70927677689673     -1.25396181160897
  H   5.42430316726011     -3.80385604567521      2.47514459838743
  H   8.27592027814475      1.98367169538125     -0.39062301788939
  H   5.62091783373203      3.47838405420114     -0.56661027016457
  H   6.61304268740912      3.23062353693498      2.55692242453565
