25
Coordinates from ORCA-job 8692optt
  Br  1.05270752525635     -0.23744983163919      0.01438717333349
  C   2.93627730163811     -0.11030478373588      0.03294538876868
  C   3.67055030771269     -1.22496574144265      0.05413180519999
  C   3.28694133821509     -2.67100095282361      0.08050041008350
  N   4.57629440603650     -3.32639488857873      0.29042751300511
  C   5.62950050985298     -2.39747105859183      0.11585732081800
  N   6.87992876769189     -2.63136558233753      0.05773053038569
  N   5.04488199250247     -1.15285764993866      0.04348484749631
  N   5.76861150575878      0.01197088632762      0.01150208694826
  C   5.00601386910296      1.13584974188850     -0.01645392695950
  C   5.78485611341934      2.36680352120498     -0.06408569661485
  C   7.15459168857178      2.56849480972945     -0.10409997386532
  C   7.36943489264496      3.96695263951517     -0.15236012290250
  C   6.13161147442334      4.57432741286495     -0.13988545479716
  N   5.18804100995708      3.59669941447135     -0.08545823672283
  C   3.58461218837242      1.21272358072548     -0.00153237947637
  O   2.89690090370314      2.27297393219245     -0.01656951840442
  H   2.81465768784967     -2.95909796625242     -0.86470570732792
  H   2.58159626520251     -2.88053557900557      0.88664019182633
  H   4.72108636327918     -4.18203918650871     -0.22189814390130
  H   7.04426506378335     -3.62661360684361      0.18144382533131
  H   7.88753996826418      1.77993420708410     -0.09919134029648
  H   8.31870015087396      4.47745257103768     -0.19252186547158
  H   5.85799018836231      5.61582906314150     -0.16418823460314
  H   4.17240851752490      3.64908504751513     -0.06810049185329
