25
Coordinates from ORCA-job 8693optt
  Br  1.09801885322356     -0.42139139780337     -0.97049191698285
  C   2.77332651445068     -0.12848704573185     -0.00858824905045
  C   3.64373122883701     -1.20492913252552      0.12603133446118
  C   3.55268271322472     -2.58494096138410      0.30064899196746
  N   4.74329499512518     -3.15395779938762      0.51116473543797
  C   5.69521179166577     -2.14921972483336      0.48637920312526
  N   6.97138629153796     -2.21508840679150      0.66371790110508
  N   5.02169695525501     -0.95922400121551      0.21872756835677
  N   5.58934537280762      0.27494804783340      0.09013653560385
  C   4.77425100530293      1.22399527578179     -0.17609392801516
  C   5.32995145084534      2.62150231866296     -0.20784839632364
  C   5.33172447510049      3.22234398913375      1.16483088550697
  C   4.96210442534417      4.45837883474042      1.65130002473437
  C   5.22898321717052      4.38725142390103      3.03330427486272
  N   5.71988160793841      3.20753654551398      3.37448157133141
  N   5.77333194196205      2.52377642621793      2.22882409656524
  N   3.40526048834211      1.10193844325516     -0.35343793029384
  H   2.63827645015172     -3.15997491849117      0.27349973947441
  H   7.19460412500445     -3.19306272553390      0.82617907362114
  H   4.74872963704554      3.25448564539340     -0.87922103416133
  H   6.35016410451283      2.56188690683941     -0.58823002931984
  H   4.55814207045238      5.28122973668371      1.08668762849202
  H   5.07813896107532      5.14165503114311      3.78939819114321
  H   6.08918893976779      1.56262941588435      2.20237935057358
  H   2.88557238385629      1.93171807271345     -0.09977962221555
