21
Coordinates from ORCA-job 8694optt
  Br  1.08386293521491     -0.12034409678993     -0.80439851163925
  C   2.78937109611354     -0.01326465654544      0.15651709515127
  C   3.61251363163854     -1.13226015583308      0.08550738234110
  C   3.45078912682983     -2.51721424992809      0.02458091945362
  N   4.61851041227993     -3.16691428597922      0.03445933898909
  C   5.62269497362299     -2.21661615087426      0.08646930897649
  N   6.90278266173506     -2.36752425023177      0.08312857497723
  N   5.00091926358827     -0.96816623038168      0.14083143325991
  N   5.62097855291180      0.23614516990617     -0.02773891080640
  C   4.83328654441963      1.23559599388418     -0.08528517195156
  N   5.47417052672295      2.47497203756336     -0.28013797996038
  C   4.99328602419506      3.71053302688321     -0.06317808789884
  N   3.81187697881234      4.07760778061945      0.33757329183285
  O   3.89075825929151      5.44151451176706      0.35854206409828
  N   5.12082456635946      5.82549139261943     -0.01869468881704
  N   5.80755106886889      4.82110905483101     -0.28046811016371
  N   3.45831117234357      1.23362808964151     -0.02840425626148
  H   2.50292438299856     -3.03338863673946     -0.02463387357987
  H   7.07772564576489     -3.36698017513842      0.02383242204971
  H   6.47159589860731      2.39250992856088     -0.41108194633353
  H   3.01926627768076      2.04756590216506      0.37857970628251
