24
Coordinates from ORCA-job 8695optt
  Br  1.12485492204302      0.14327893619696     -0.12273223194270
  C   3.01063433184899      0.01038971595756      0.01757730277313
  C   3.63706560567099     -1.24270055941341     -0.15601321728697
  C   2.95024257409015     -2.56226321477079     -0.18655974346746
  N   3.83538262174909     -3.57430357911055     -0.77718797979551
  C   5.19180094002983     -3.63786395900300     -0.51161665406542
  N   5.90718573676453     -4.70973208545163     -0.51988212096988
  N   5.79017000878648     -2.42613583480624     -0.28028810076232
  C   7.15601413750455     -2.38406043914094      0.18819918931560
  C   7.83890072511611     -1.06120332123257     -0.10426578752274
  O   9.02096692983294     -0.97092574611024     -0.29067283270687
  O   7.07356172083479      0.03902434767298     -0.09098554649755
  C   5.71116206457573     -0.09795116661524      0.10545885317971
  O   5.12638694372231      1.11213799663904      0.26618838838120
  C   3.71561270612020      1.22356819000145      0.19257795456056
  N   3.22808643506255      2.40659578330818      0.29665187342800
  C   5.03659761294544     -1.24819762892169     -0.11059028034974
  H   2.04752338568182     -2.50897413641766     -0.79656019623861
  H   2.63307991928929     -2.87660042764696      0.82372774472764
  H   3.42529820603052     -4.49326934194098     -0.82527219006276
  H   5.32656112874673     -5.51991437101566     -0.70840238533173
  H   7.72810166540281     -3.17609206628311     -0.28216471853524
  H   7.20277940053115     -2.52840644988573      1.27786874637780
  H   3.99003027761991      3.06659935799027      0.42294393279185
