22
Coordinates from ORCA-job 8697opt
  Br  0.77697167572606     -0.72939187575006     -0.90789658586962
  C   2.57010795466921     -0.24669282882074     -0.50211977184308
  C   2.92467734518894      1.09358019204360     -0.42768567807561
  C   1.98917827485742      2.15671692201977     -0.75623769788043
  N   1.95077894793296      3.36165224414941     -0.32129842528682
  C   2.84433785659305      3.85116638459697      0.62191750734704
  N   4.09857561538227      3.68026805166866      0.74993969098330
  N   4.71053586567812      2.79086753524286     -0.14595598892633
  C   4.27743752899473      1.44726282817801     -0.11001298989323
  C   5.16218311308405      0.43599958948192      0.09752168170622
  O   6.49031342175105      0.59227828596642      0.35131697248752
  C   7.05537031868058     -0.69776408768613      0.46641685663869
  O   8.23545406881560     -0.81238452523434      0.69510731766364
  C   5.99318920771926     -1.64118539242289      0.26194098780789
  C   4.82963848955186     -0.93538505065981      0.02958538073431
  C   3.46638312753930     -1.34520004697243     -0.25580608446538
  N   3.06270432933616     -2.59111442320722     -0.29785082131169
  H   1.20088448761130      1.88925681250077     -1.45551818975352
  H   2.40898479834820      4.57020341706951      1.30921318178854
  H   5.70178231091439      2.81786639242885      0.05324633448613
  H   6.14916529849049     -2.70605546015819      0.29105953817569
  H   3.85534596313462     -3.19894496443499     -0.09688321651326
