22
Coordinates from ORCA-job 8702optt
  Br  1.08174629288913      0.36971061038733      0.15499599439003
  C   2.96933660887706      0.19122272875825      0.07175229884689
  C   3.56424724789981     -1.08035978938567     -0.03088100140227
  C   2.98166041405212     -2.35967600410081     -0.10782067032417
  N   3.65691850128129     -3.47185540234208     -0.19370429954780
  C   5.05935984945190     -3.40994530192262     -0.21210425833850
  N   5.77101941857773     -4.47719233223006     -0.28862763253150
  N   5.71529153843284     -2.17799711716931     -0.14187746698378
  C   4.98968853179296     -1.10568298834063     -0.06132615058178
  N   5.65656488923715      0.10018939907701     -0.01670040335261
  C   7.08704448750887      0.06382366846574      0.07564624573147
  C   7.75391339345030     -0.68889953869689     -1.05622320369980
  O   8.86420714800871     -1.12816101553879     -0.99239454022716
  C   7.03099527333421     -0.69849107576705     -2.35927672217715
  N   6.55326556808427     -0.62684090736081     -3.39838723329798
  N   5.07300906526590      1.33520965905515      0.10404872502421
  C   3.75279827812958      1.33343716571240      0.13638842960754
  H   1.89642256518537     -2.43759873761550     -0.09659213106552
  H   5.12168837563191     -5.25957304384001     -0.33412646068246
  H   7.43399492398203     -0.40737799850929      0.99854552077067
  H   7.43118552120136      1.09817815017610      0.03700087626347
  H   3.29664210772538      2.31087987118753      0.22566408357821
