22
Coordinates from ORCA-job 8704optt
  Br  1.55033483726337      0.46656571834217      0.36036232362183
  C   3.33054652714989     -0.02026295416181     -0.07259533920569
  C   3.65854643054751     -1.32074322931915     -0.38143885383079
  C   3.25001557252404     -2.70271948063968     -0.17355524383096
  N   1.94513900548266     -3.10354057085100     -0.01701236196751
  C   1.46125193193586     -4.37945788454849      0.19010673819276
  N   2.09311635314419     -5.47541418347944      0.26104558384698
  N   4.30835482714052     -3.56979172646624     -0.13544951019454
  C   5.37542567131563     -2.79107674437824     -0.37237488850812
  C   5.02601022093414     -1.47937362157694     -0.64286557765363
  C   5.98224922280654     -0.59512956993153     -0.20206182779531
  N   5.73259772855529      0.63017005418749      0.15596222012210
  C   4.37402697946734      1.03510041410328      0.06726673325382
  O   4.06806394652329      2.21158918650812      0.20533090035558
  C   7.19432232107244     -1.47737277711250      0.07881332014318
  N   8.37711461297598     -1.19066417586338      0.42236808516537
  N   6.73255624920844     -2.80863062538351     -0.06914548962866
  H   1.27481509742891     -2.34886394579714     -0.01133565102703
  H   0.37587610451600     -4.37645291475923      0.29376201695015
  H   3.09446480096074     -5.31210110302680      0.15216284626543
  H   8.45025426624802     -0.17626196870939      0.49073606540976
  H   7.28891729279913     -3.59556789713657      0.21391791031528
