23
Coordinates from ORCA-job 8705optt
  Br  1.17990431819725      0.12948946866536     -0.41886077445280
  C   3.01659020817402     -0.17849207464470     -0.08042464525269
  C   3.45627966817448     -1.40980867785459      0.38297007403458
  C   3.15822825127458     -2.83511065831418      0.46669294947796
  N   1.87005913932213     -3.33793838031802      0.41088388970565
  C   1.46954145181737     -4.65324298946869      0.49867806443984
  N   2.16935946025339     -5.69743471881640      0.65138446658821
  N   4.24999943033560     -3.59913274742496      0.59159222553983
  C   5.30741431037087     -2.70896010421423      0.62472589846539
  C   4.83041721664961     -1.43876411525726      0.57240416425890
  C   5.74060307899815     -0.50037639731462      0.08731544091221
  N   6.96218581132669     -1.17775686659101      0.10034791366065
  C   6.74432158763942     -2.59779725198883      0.31360241535864
  N   7.63350769721550     -3.50025250906650      0.20076304037594
  N   5.38629963801617      0.64699603179548     -0.38390800302056
  C   3.97841554265369      0.89938837681584     -0.37656151663966
  N   3.53450138554545      2.07063341471043     -0.70041406557061
  H   1.15218055430219     -2.64215473230060      0.28025181138855
  H   0.38446965132677     -4.74057160295454      0.42217364923078
  H   3.15968145184708     -5.45186067131132      0.70059369329577
  H   7.77144245708978     -0.85322304328428     -0.40215033338551
  H   8.53257404889218     -3.09670516347132     -0.05789280903432
  H   4.34302364057755      2.65707541260896     -0.90016754937677
