22
Coordinates from ORCA-job 8707optt
  Br  1.18225801972900      0.47368373376508      0.58924924246781
  C   2.84285194039243      0.33637337661583     -0.33900322427964
  C   3.33137869359044     -0.83836685528421     -0.81711317632450
  C   3.24411822990726     -2.26817773124799     -0.33558643355437
  N   2.04164824075212     -2.85136647414492     -0.00941547335313
  C   1.83640160105475     -4.15545894091253      0.41559367689312
  N   2.68221764111015     -5.07630017781799      0.58965939352252
  N   4.38961247275973     -2.86609196410895     -0.27797466345835
  C   5.33372753309448     -1.86305206678888     -0.69273536926323
  N   6.49888056673677     -1.52895187877047     -0.14810354233002
  C   6.58731300052154     -0.13006675724348     -0.36804361014254
  C   6.83345473691255      0.95080099811955      0.54621530093529
  N   5.85726738623210      1.89464857910694      0.51029190774191
  C   4.98510205055872      1.43637597219947     -0.43176113872359
  N   3.56744702375285      1.54218445994184     -0.37810865284739
  C   5.46956449748487      0.31664975583220     -1.08949251009923
  C   4.65632709931067     -0.79617071386495     -1.32641058111104
  H   1.23438328661125     -2.25354849008041     -0.07147515790150
  H   0.77885546580835     -4.34957150993830      0.60042009467126
  H   3.62364068338827     -4.73647420485210      0.38166789120468
  H   7.62839442151485      1.04209059998809      1.27497631209895
  H   3.20015540877681      2.27279028948619      0.21414971385300
