25
Coordinates from ORCA-job 8708optt
  Br  0.25918149432535     -0.40680682798827      0.73114282642623
  C   1.57058810337588     -1.39515118476472     -0.58115775174080
  C   2.73604172713144     -2.00053551268118      0.10583877698116
  C   2.66491726563362     -3.32878332966399      0.57977263012738
  N   1.51242113632917     -3.91066228947772      0.73360820560923
  C   1.37042892412869     -5.24348163575587      0.28075759457573
  N   1.90012643507200     -6.31083825692747      0.73132405525295
  N   0.37658753460122     -5.24832722456275     -0.71703195717375
  C   0.36821949148044     -4.23165063332211     -1.48852574508500
  N   -0.76667888627108     -3.58776572543388     -1.92492238215809
  C   -0.43049661989007     -2.17643799674112     -2.20572218627025
  C   1.03669334988218     -2.10140349000902     -1.80343178649876
  N   1.50757906357345     -3.48356661261008     -1.91666628771028
  C   1.83769783368992     -0.84949301077312     -1.85988152153592
  N   3.18725931883360     -0.62527750727029     -2.18330723804708
  C   4.13399417802229     -0.76549032924163     -1.21856104271645
  N   3.97176591026265     -1.45224137283262     -0.13435213832899
  H   3.60698815945438     -3.89188378487713      0.56851001088150
  H   2.49746746183905     -6.06219052048242      1.51803585039771
  H   -1.57262937157755     -3.76624256294930     -1.34449838634761
  H   -1.04223463208870     -1.50690210525796     -1.60238611731773
  H   -0.56380007396368     -1.94167556494451     -3.26488770408831
  H   1.78016633475175     -3.74300891626657     -2.85942845520923
  H   3.42497394166754     -0.09356926999502     -3.00324928505575
  H   5.09174191973645     -0.29161433517117     -1.41197996496786
