28
Coordinates from ORCA-job 8713optt
  Br  3.40156685215654     -1.18890847748264     -2.27711780133980
  C   3.14769967965935     -0.39322745512319     -0.54109002865312
  C   2.48634447552061      0.85707741441617     -0.45783761920156
  C   1.67541016457635      1.35578950122340     -1.63869707134335
  N   0.44028622579817      2.04742665666157     -1.22039528501208
  C   0.33808530542783      3.39895418870591     -1.38800453395432
  N   0.97150781910333      4.03415032073393     -2.29747747122469
  N   -0.44568648693607      4.08457666198792     -0.40203569865663
  C   0.44111253569606      4.65850662980916      0.63381290534206
  C   1.19636813526893      3.55722690489303      1.36948890690162
  N   0.81223394444953      3.08025586945280      2.49226996839487
  N   2.24621187350186      3.03577251281525      0.65645760296200
  C   2.64709547615572      1.65753305825889      0.71257320793300
  C   3.17119968384305      1.20208492566321      1.88256399775142
  S   3.49833473373337     -0.48170070113544      2.15455009308833
  C   3.79770563840444     -1.10608404199106      0.48897046728443
  N   4.50270927671859     -2.18511878598965      0.35599949237531
  H   1.41420110737721      0.51171079387532     -2.26978919052135
  H   2.21839929899190      2.06374004580789     -2.26927856369737
  H   0.12240541907563      1.71869092872622     -0.31836213780993
  H   0.71708784032469      5.01653086379769     -2.24777196996950
  H   -1.08249225401123      3.43553774134535      0.05043274410170
  H   1.12441485494703      5.35249203969042      0.14266527612648
  H   -0.16996113946828      5.21969564743233      1.33984868320658
  H   0.00093982362281      3.59643328516314      2.82246566656789
  H   2.42068025571101      3.48223220074852     -0.23261997545527
  H   3.32014755568195      1.86249771322849      2.72258774144720
  H   4.85999190466958     -2.48487644271466      1.25879059335610
