23
Coordinates from ORCA-job 8715optt
  Br  1.59688179430404      0.77753051669446      2.81533076177314
  C   2.14256190144485      0.92122187426235      1.00231450922914
  C   3.28932522591860      1.67129881474495      0.61269182719347
  C   3.80173221174913      2.75490204714383      1.50319292853705
  N   3.28202998181709      3.91696543741121      1.59607844530589
  C   2.22319561968979      4.29132296713726      0.72955559083389
  N   2.30922276524816      5.20335849300240     -0.14467243011930
  N   1.02795200209806      3.61124030260102      0.94396247523355
  C   0.05393280485195      3.49885943408952     -0.02082068970066
  C   -0.53975372428757      2.32999784362658     -0.35247992681648
  O   -0.15775446774805      1.10385396977041      0.13122514024132
  C   1.20682800033349      0.83567380419251     -0.07011859536617
  C   1.75968330609422      0.78874577223970     -1.32647723574483
  N   3.07313508239251      0.97353339699884     -1.57372681002333
  N   3.76101565382267      1.63655083989177     -0.60395558188809
  C   -1.63453620656846      2.36410404923647     -1.31657716180743
  O   -2.24847763250319      1.40765555313474     -1.72315634961959
  H   4.64671094712030      2.55309491104115      2.16189044263272
  H   3.25375452564356      5.57654624084250     -0.14523504990614
  H   1.09134887960040      2.83720005367316      1.58755176296187
  H   -0.19703483111162      4.40416846725631     -0.55717842249471
  H   1.11763148939426      0.65887915556923     -2.19448717573527
  H   -1.87538532930422      3.38729605543957     -1.66690845472003
