27
Coordinates from ORCA-job 8716optt
  Br  1.50007253329258      2.30498390738689      2.60489253096979
  C   2.57741565896939      1.52117484271379      1.20354232188862
  C   3.63018196968165      2.28217980055488      0.68436996053553
  C   3.30756383907832      3.69529860230355      0.26286796655689
  N   2.18783683952150      3.70349089582628     -0.71526768179094
  C   0.88752009615126      3.89617312373469     -0.24765460211497
  N   0.50574706304993      4.91212507347583      0.43095371672563
  N   -0.07512731862393      2.96875998830617     -0.62184942289500
  C   0.11279483628681      1.54862383050053     -0.84295721746655
  C   -0.21729562309467      0.66593806622659      0.37629055184268
  O   -1.35821970921918      0.60374178889359      0.78988701520859
  N   0.79800013359311     -0.08743879173990      0.89639198589957
  C   2.15550008428877      0.31392121254137      0.66180921304139
  C   2.85988201911379     -0.39724028823459     -0.30932959020359
  C   4.16173742817719     -0.06991847300155     -0.79027385726155
  N   4.91085626507829     -0.72407064860561     -1.60882681163862
  S   4.89580904167416      1.45656140383758     -0.19755110635820
  H   4.17812445897704      4.16355997880726     -0.19560858569760
  H   2.99702227949203      4.30287090827017      1.11332968767483
  H   2.27998970014874      2.91927646595940     -1.34649898837889
  H   1.26659441526981      5.58052621469407      0.50094362171791
  H   -0.97076200521520      3.21273775970973     -0.22181872425273
  H   1.11203329848863      1.34411882949196     -1.21457234729590
  H   -0.59617116128778      1.22851560312160     -1.61035957806787
  H   0.55573468376971     -0.56112686857185      1.75673267983739
  H   2.37826395973180     -1.26619042252812     -0.74202131968944
  H   4.45389521360622     -1.60359280367433     -1.84942141878697
