21
Coordinates from ORCA-job 8721opt
  Br  2.21462713097119     -1.09048316302844      1.67453170689958
  C   3.09652925896198     -0.00837270352440      0.40187797242744
  C   2.77103132063034      1.26097444231496      0.18993827091577
  C   1.77092043843606      2.07102196314445      0.93194869287259
  N   0.55089697610303      2.06649600149649      0.64593582484285
  C   -0.14122909663476      3.26570046229894      1.04022101702521
  N   -1.09704490152764      3.14717394957571      1.89694009092469
  N   0.26387896564171      4.41947514537760      0.45558252969794
  C   1.17832154523358      4.57045897064579     -0.49229747570462
  O   1.68103438596121      3.49335470431613     -1.27654758765343
  C   3.00834057350229      3.23731654450743     -1.28739426037928
  C   3.52781116786013      2.11441213111736     -0.75320066265516
  N   4.87094552676791      1.82050452286930     -1.03923836578554
  C   5.31717401356216      0.65005047557141     -0.91970632568079
  S   4.43727955154045     -0.80405311530849     -0.40391017131524
  C   1.61505576772238      5.82594877205219     -0.93336090063226
  N   2.03734096146888      6.83584906884709     -1.32725758910341
  H   2.22847033863516      2.86986987545411      1.53217499643373
  H   -1.48052658666680      4.07873537026520      2.04614055720275
  H   3.64804681308592      3.93177402536142     -1.82709484152772
  H   6.35609584874470      0.43779255664558     -1.15928347880513
