19
Coordinates from ORCA-job 8725optt
  Br  0.84902375518209     -0.92924886459760      0.55956290282558
  C   2.60103042833136     -0.28554462514657      0.28578770404121
  C   2.89207625420024      1.10425181858939      0.28737661256745
  C   1.90155059925578      2.10194695811787      0.31399305661080
  N   2.03383162404652      3.38868564227619      0.07408205299408
  C   3.27381149604692      3.94550938418026     -0.06543362377593
  N   3.64143857108870      4.85147211123610     -0.87364033468120
  N   4.23392152883143      3.61706222703114      0.97444139125370
  N   4.70325099075292      2.50648794034849      1.07511839099259
  N   4.23344256813743      1.50425046721357      0.10927674824745
  N   5.26568426005056      0.62242959604046     -0.08533819356622
  C   4.92131978351964     -0.59864591383822     -0.18750311502487
  O   5.75848546312585     -1.59685179464425     -0.45261098468192
  C   4.94508402900787     -2.80544174560715     -0.42512212628619
  O   5.49068560095996     -3.84220718397040     -0.65439462804900
  N   3.65547657328471     -2.50282353371682     -0.12818896898391
  C   3.60046448751245     -1.17855587875603      0.00646919398503
  H   0.88982210014842      1.75372400084821      0.47902363482073
  H   2.87459988651712      5.02349939439534     -1.52289971328938
