22
Coordinates from ORCA-job 8735optt
  Br  1.00078648511674      0.05699392821972      0.04654430565801
  C   2.89763407411498      0.07783377885438      0.04791919989436
  C   3.54857307147123      1.32677302139411      0.04909562209580
  C   2.98761356390310      2.60920677314517      0.04981639808488
  N   3.69171304591783      3.72958103573080      0.05117905552707
  C   5.05858426875185      3.65367418504784      0.05192258084529
  N   5.85749301208908      4.64332831740191      0.05407789388190
  O   5.68954809869103      2.42142624649550      0.05087527638824
  C   4.97552982068855      1.26743131557761      0.04978627869187
  C   5.64278087837180      0.09735924849120      0.04931647154679
  N   4.95929891243790     -1.10905355946867      0.04831721873454
  C   5.77848634798205     -2.31554616840556      0.04800451070859
  O   6.98645614884366     -2.16027043347162      0.04838781727982
  N   5.14165906458969     -3.50121700522921      0.04738787010626
  C   3.81148628396786     -3.51414272443937      0.04690153554139
  C   2.98369328756972     -2.42049723141317      0.04693005668770
  C   3.57658245873403     -1.14057011491079      0.04768321920583
  H   1.90857092118492      2.71597734434654      0.04930061644104
  H   5.28372354611465      5.48213183679909      0.05491194194232
  H   6.71652114431655      0.02222142901946      0.04975365842677
  H   3.36097129789597     -4.50426530816507      0.04640252012195
  H   1.91229426724679     -2.52237591501989      0.04648595218956
