23
Coordinates from ORCA-job 8736optt
  Br  1.12691800148759      0.44988816793020     -0.45517061407153
  C   2.96382042697883      0.20573554782740     -0.16119323213786
  C   3.47661328175060     -1.01493488832500      0.07246870889239
  C   2.71693546722673     -2.29003754423738      0.13804208960810
  N   3.62285504114166     -3.38514032686395     -0.24192818205821
  C   4.84906979339006     -3.49607020908666      0.35649797293138
  N   5.52561293596226     -4.53836724485711      0.60359283446177
  O   5.46005560886179     -2.31050606927165      0.66845556014595
  C   4.88984414408805     -1.12078009957220      0.32812617042328
  C   5.65183164165287     -0.02610730997242      0.30012339278861
  O   5.13197804155921      1.20031277164690      0.04508080793402
  C   3.79455369482888      1.40563636841540     -0.19364727565122
  N   3.36387120351112      2.57297697978260     -0.42980963956247
  C   2.09998462711768     -2.50891234383730      1.54539745703397
  O   2.22177434442871     -1.64166455238457      2.43773935671467
  C   1.42573190588338     -3.75762909180940      1.67293897150313
  O   1.32728132743396     -4.61410292750202      0.74913097501054
  H   1.91212888110637     -2.28743384655975     -0.59772304760105
  H   3.08882252709416     -4.25172395878574     -0.21672050096223
  H   4.96986016326233     -5.36334933403765      0.40019750790576
  H   6.71273214140345     -0.01155665279962      0.49365165391119
  H   4.13343214613949      3.23792880772828     -0.40070420089414
  H   0.98329265369076     -3.94216224342834      2.66445323367395
