22
Coordinates from ORCA-job 8738optt
  Br  0.92474894254561      0.85050947105654      0.22074982904491
  C   2.72463025584107      0.26834706932001      0.14916162652472
  C   3.10158412475366     -1.08909876635782      0.09889916975245
  C   2.12718661545084     -2.10907801757416     -0.02723712179175
  N   2.22321351450092     -3.40735294559582     -0.18168041371039
  C   3.34814345704100     -4.12159040832837      0.07632954896590
  N   3.64249168866930     -5.27725057543010     -0.36285003438135
  O   4.23424090270236     -3.58787138058832      1.03089569371890
  C   5.00947451166794     -2.58412661215189      0.53649786507163
  C   4.54421450437048     -1.40167139136247      0.09746334529159
  C   5.56967393249574     -0.37379516789177     -0.28039139233105
  N   6.78433931118060     -0.57745813662025     -0.66850352945252
  C   5.04190070465131      0.93586431158877     -0.11795240667873
  C   3.71038801162845      1.25649754653254      0.08116827308037
  N   3.59421597351916      2.64780629377105      0.10807094660745
  C   4.79670919895032      3.05795481485904     -0.06987011356337
  O   5.73898477882133      2.11223920687701     -0.22565938178845
  H   1.10641077658972     -1.74421402530660     -0.08933068171157
  H   2.90656213161651     -5.55016469690724     -1.01042266307730
  H   6.07146647409094     -2.79642620003069      0.58603943501685
  H   6.94991368336141     -1.57262305408136     -0.79621571628320
  H   5.13550650555129      4.08150266422194     -0.10216227830508
