21
Coordinates from ORCA-job 8740optt
  Br  1.09822124937334     -0.01559465430901      0.75728036182706
  C   2.99177154018912     -0.01838628496559      0.46553518798667
  C   3.68471133753100     -1.12128263490367      0.12453866504635
  C   3.10382630550214     -2.42111397080726     -0.25047858978425
  N   2.03023072657836     -2.64711266382714     -0.88888856894665
  C   3.89101626748513     -3.64085426656622      0.17605106554054
  N   3.39438972509177     -4.79177150858810      0.30114108980485
  O   5.18919211298125     -3.46686582559327      0.47522347824565
  C   5.83079713711388     -2.25682649736294      0.22323574392951
  C   7.23519785594328     -2.38628430998685      0.17137166900849
  C   8.42958366964445     -2.51592254665742      0.12370670715905
  C   5.16887644769597     -1.06772859939903      0.10253125540562
  N   5.85365311625018      0.07773232775258     -0.10315632619186
  C   5.30578674099092      1.26156181874112      0.03120103615474
  S   3.69452761368460      1.51377574251551      0.80597092167366
  C   5.93248380841267      2.50599270851120     -0.30021470351245
  O   7.06706040166769      2.65229248243657     -0.75433448419382
  H   1.56305887334546     -1.77882440944262     -1.13916413510291
  H   2.41431503058627     -4.73476182120308      0.02868895493319
  H   9.48605476670807     -2.60885124706467      0.06698192692016
  H   5.29024527322435      3.38882616071992     -0.10722125590362
