24
Coordinates from ORCA-job 8746optt
  Br  1.21352992316939      0.91172800420411      0.50955600134041
  C   2.94423893311118      0.29280752206516      0.07441708349042
  C   3.15197802470651     -0.98196334205683     -0.47695326675161
  C   2.08951621623286     -1.96770127148867     -0.81751081572494
  N   1.79395887112805     -2.99283872948781      0.21337064831164
  C   2.68898108670097     -3.92883264076940      0.67494338531778
  N   2.45229449782796     -5.13903343785834      0.98084716997877
  O   3.92665506042799     -3.42343257203595      0.97486264652497
  C   4.96960074308610     -3.48904347043921      0.03245719896156
  O   4.73369486262357     -2.65238603098057     -1.06695893336093
  C   4.48538780533997     -1.34267544054077     -0.66107877467604
  N   5.55576388949217     -0.64368624951142     -0.42105363641606
  O   5.30098618071520      0.68362117518420     -0.01767126322464
  C   4.03923452084505      1.15966861427500      0.32934778020205
  N   3.97419740046410      2.34348950612753      0.81736789845610
  C   5.21553264315551     -4.84684922323251     -0.47935307795208
  C   5.46923794472189     -5.94620824316543     -0.87404449321950
  H   2.35127349080738     -2.46931249759505     -1.75290719172470
  H   1.14834898560704     -1.44025014787417     -0.96487461491952
  H   0.87114407407723     -3.38611950794683      0.10238522210238
  H   1.50557309758946     -5.39434104548654      0.71172915553426
  H   5.84001128647388     -3.13212038339973      0.58615449845182
  H   4.91818013474826      2.71791607935452      0.88311886888574
  H   5.67468032694821     -6.92943666734129     -1.22115148958787
