26
Coordinates from ORCA-job 8748optt
  Br  1.14005718091349      0.38752743916662     -0.12830306997153
  C   3.04098736923238      0.12714077742435     -0.64849763544923
  C   3.64455880647304     -1.10240752626229     -0.41930549316676
  C   5.00182820528310     -1.20051948869033     -0.10769951607304
  N   5.88800848959736     -0.26635814214750      0.18691782607797
  C   5.55857228079034      1.04605286925554      0.13323614486367
  N   6.27985432030876      2.03412914024615      0.51033111371220
  S   3.99209721369159      1.57563707244963     -0.62949310249964
  C   5.39022716718091     -2.67462818422357     -0.02826297698202
  C   4.22830586094222     -3.37648155069616     -0.74753809529150
  C   3.01176787423287     -2.47663102218530     -0.49094653504004
  C   1.86960463325511     -2.64541931815062     -1.52699388282713
  N   0.70954212270511     -3.04028145609742     -0.71630470667716
  C   1.16771720042007     -3.05175105040121      0.60034993561382
  N   2.39536046247933     -2.83977588063795      0.81181583380761
  C   6.70073357522668     -2.99608120738922     -0.57977612843661
  C   7.76556897458447     -3.28933740384072     -1.04714275082315
  H   7.15936664644388      1.64940357379377      0.85698995290140
  H   5.38508518469881     -2.95355615245647      1.03145397960450
  H   4.05882333410178     -4.39499205068724     -0.39573237310537
  H   4.43761727999399     -3.39805121095394     -1.81919062542032
  H   2.10528106875531     -3.43002723620458     -2.24905628246711
  H   1.68421308346973     -1.71452751811430     -2.06184642789645
  H   -0.12401515050164     -2.48443547236176     -0.85656015366043
  H   0.45727255942651     -3.27267850207521      1.39116425143115
  H   8.71856425629471     -3.51695049876020     -1.45760928222481
