19
Coordinates from ORCA-job 8749optt
  Br  0.84782928113065     -0.20607310850828     -0.04561284073183
  C   2.73447093941386     -0.06616126020067     -0.06057947862273
  C   3.35869755529066      1.11023735857011     -0.06351348132488
  C   4.84149290733423      1.20543430738613     -0.07154522011084
  N   5.69037802000277      0.20168842816697     -0.07882729735013
  C   5.30349556871851     -1.09208671480636     -0.07997593260760
  N   6.06600191229846     -2.11927562027476     -0.08812289006732
  S   3.55347205375029     -1.59561174261201     -0.06840338455195
  C   5.25633833086065      2.60981220420547     -0.07004154110688
  O   6.38933357887843      3.10095928156129     -0.07416600083739
  C   3.97376616111259      3.32522097229674     -0.06252207355309
  C   2.87644476741523      2.48548293321481     -0.05904332086008
  N   1.71678106338087      3.17619340743519     -0.05428981860183
  C   2.09829550665002      4.44585563870218     -0.05442323761721
  N   3.47408125649626      4.57960696897528     -0.05928497693479
  C   1.23954897463562      5.57347876855829     -0.05114628428052
  N   0.57572221622108      6.51393702823559     -0.04916521876082
  H   7.02905126473476     -1.78377271887254     -0.09376600575393
  H   3.99279864167503      5.44207386796654     -0.06057099632618
