22
Coordinates from ORCA-job 8751optt
  Br  2.46097094875598      1.32944530971933     -1.98719735429876
  C   3.64655053795916      0.74006353848204     -0.57949989063590
  C   4.75821933630399      1.51963197445931     -0.20896917767146
  C   5.97600839607468      0.87741870974813      0.18251153347103
  N   6.18749387752901     -0.46349694800325     -0.18991127134055
  C   5.25513440992485     -1.46005175581406     -0.36304370661653
  N   5.50264791682619     -2.70269057609310     -0.48151382323929
  S   3.55769766157588     -0.97036385022398     -0.31910714346950
  N   6.97431872077603      1.39964034311073      0.81167025676786
  C   6.94905893450662      2.58705583384536      1.49462758790634
  O   6.44207942495169      2.77294468483808      2.57349263937589
  C   7.69906083689666      3.67278563533594      0.75971898144548
  N   8.80611532927115      4.10571131097933      1.20938709727235
  C   7.04342502040674      4.11176875101164     -0.47532035309729
  C   5.81504536461803      3.78533578700005     -0.88627927097604
  C   4.67549579112786      2.97230901063768     -0.31621209975768
  O   3.62181469369548      3.58408217949618     -0.22091977782745
  H   7.11010473087613     -0.78115747246621      0.07592971020579
  H   6.50329107592977     -2.88725132356966     -0.41629189234149
  H   9.18536930016534      4.81116517041663      0.57360518947403
  H   7.61204698296344      4.82162732259888     -1.07116042283173
  H   5.45605070886526      4.28102636449090     -1.78451681181508
