20
Coordinates from ORCA-job 8752optt
  Br  1.30753167971792      0.08409415362525     -1.00067618778228
  C   3.09862321523441      0.20322178640724     -0.44483217140414
  C   3.70283747259268      1.33198795796837     -0.01337027731174
  C   5.14648010652478      1.31455684360653      0.25792172668689
  N   5.81436601184957      2.42017270024461      0.63785825421718
  C   5.44230516568833      3.53004467089271      0.06604017240895
  N   4.81533906321054      3.57335011642453     -1.13935220148802
  S   3.25779621455631      3.99582701995506     -0.71020820284230
  C   2.85191680006752      2.54930120058212      0.24951581909113
  N   1.92332607930444      2.47444002115564      1.11011822244361
  C   5.76622679174546      0.04611497215480      0.22802428745175
  N   7.00029242924612     -0.29041673435915      0.52544679668654
  C   7.07533645243332     -1.68161119524410      0.29713054331127
  O   8.07411415241150     -2.35054430177378      0.48518409783238
  C   5.76599328693580     -2.19583670718444     -0.19515287138519
  C   4.98298119513712     -1.11202490046290     -0.21883717995985
  O   3.69072013930110     -0.99404087111120     -0.60634203209951
  H   5.65081176472794      4.45161606812485      0.62283172093167
  H   1.44217805543098      3.37258083743672      1.18869938679512
  H   5.55282392388411     -3.21783363844286     -0.45599990358346
