22
Coordinates from ORCA-job 8758optt
  Br  1.89797044738450      0.96617173826382      1.95148481018407
  C   2.54367263198871      0.03978799435088      0.41536808618334
  C   2.80025160854788     -1.32040527106645      0.44360705929050
  C   2.27362286092795     -2.33621969146910      1.24494096834853
  N   1.07956254990370     -2.31413461745059      1.82549172397194
  C   0.39650462614089     -3.43426369335491      2.01969851896166
  N   -0.63313408429783     -3.67192464452652      2.74368852959395
  S   0.86937814597071     -5.07167243659144      1.21772328986946
  C   1.91154513951491     -4.90959073787613     -0.21116794709943
  O   2.67669447698861     -5.78223469734508     -0.49523348117451
  S   1.71778259395445     -3.46358936371356     -1.32678103932924
  C   3.47164262046257     -2.93048860699608     -1.29457642029948
  N   4.39804673210616     -3.53223572610108     -1.90749732053062
  N   3.66549184515079     -1.75845087014880     -0.58949611175768
  N   4.83315047773560     -1.02221520007986     -0.85561455505399
  C   4.62810821379658      0.23123248841347     -0.75338828142742
  N   3.42596279368612      0.79317454329914     -0.39640940939752
  H   2.86475903126139     -3.25194402449420      1.23964033698297
  H   -0.83184714300676     -2.82714135735239      3.27994056934150
  H   4.01965064093013     -4.33565572678470     -2.39812072722369
  H   5.44720650431997      0.90366588787868     -0.98324465338288
  H   3.37097728653292      1.79413401314493     -0.32605394605146
