20
Coordinates from ORCA-job 8760optt
  Br  1.21943777964746     -0.25087701236374      1.04394958642598
  C   3.12232581684990      0.10098957665464      0.91580601939591
  C   3.59597054451014      1.20349658539715      0.17089702532233
  C   2.81093794167973      2.29001964104112     -0.20672189926063
  N   3.10957216644269      3.42018733931974     -0.83020384478545
  C   4.31678525242283      3.99191061661098     -0.89518994267963
  N   4.80216242515546      4.81368430420637     -1.74193172872992
  S   5.46656904863903      3.62914054968926      0.50161202092769
  O   6.63988335893052      4.44796142125260      0.45414669926507
  O   4.71941423147355      3.53045418756259      1.73364870434356
  C   5.99947638741511      1.93011627741736     -0.02185886326044
  O   7.15509567817481      1.71906705630599     -0.25778310360503
  N   4.97155182046390      1.05087757459291     -0.18914037892958
  N   5.37144141439124     -0.18571396534538     -0.74402531932795
  C   4.80877116237571     -1.18281359168405     -0.18844571275706
  N   3.87026841067728     -1.07920131863988      0.79750231206310
  H   1.75750785831052      2.17233812387285      0.02622483605109
  H   4.11983996257417      4.92493541609947     -2.49348420579542
  H   5.09853111762082     -2.17752137246100     -0.50829454939614
  H   3.52645762224507     -1.91005140952901      1.24529234473254
