24
Coordinates from ORCA-job 8763optt
  Br  6.34892556566163      4.58150993942805      0.85027935428187
  C   6.46787223147445      2.79766992218943      1.50803838335287
  C   6.82438066777066      2.49098926247113      2.78009888734230
  C   7.10745971552305      1.10468706614992      2.98895078044773
  N   7.53942974350912      0.35216359059069      1.96636760389322
  C   7.50811574852502      0.93624446931333      0.78762661857375
  O   6.40005265482391      1.82449097309587      0.55901038674837
  C   8.61387425543063      1.17059208009194     -0.06057759219547
  C   9.72896532059798      1.52578130678627      0.70256686145887
  N   10.62192508142506      2.46615115011992      0.45485882212046
  C   10.85663941565495      3.26739418488066      1.55010709734354
  N   11.92223214769466      3.86875818843640      1.91967530106619
  N   9.65246217698551      3.50098331394780      2.27373487944540
  C   9.46131578826643      4.07139322171649      3.47479803625383
  C   8.28927657809457      4.11503586725032      4.17138669547463
  C   6.99558362527993      3.47971527837330      3.91081845941985
  O   6.05429434978602      3.66037912723711      4.66539610065876
  H   7.09677143012786      0.67543654757914      3.98210545601340
  H   8.43611672616553      1.65626310682618     -1.01047851528469
  H   9.70146642664152      1.10245084209994      1.71031702954874
  H   12.67855124388895      3.56524022226685      1.31315520547148
  H   8.82186994122514      3.16599340927626      1.81418276290515
  H   10.35442219726827      4.52561964640629      3.88994942747115
  H   8.29899696817895      4.67105728346667      5.09963195818856
