24
Coordinates from ORCA-job 8770optt
  Br  1.51035510939431      0.94693470992735      0.37148372846596
  C   3.18193489402565      0.19849105585168      1.12047307996375
  C   3.78182469990292     -0.94147084461761      0.51661285941938
  C   5.20603113426501     -0.89081512815756      0.40257465537263
  N   5.87324959819765      0.23980244551698      0.54293375629842
  C   5.22276699609436      1.35260013409908      0.94055058734548
  O   3.97898865060034      1.19700209277909      1.55310152308634
  N   5.65263536185894      2.55262430628084      0.92663878145408
  C   6.98454067176345      2.72434757732531      0.37906466809008
  C   6.97653490951834      2.98618962969126     -1.06697142738125
  C   6.97100870894862      3.20546856100928     -2.24628298136822
  N   6.05642229527747     -1.99912288062181      0.30411544557348
  C   5.76342301857041     -3.20313924532694      0.01475087659319
  N   4.63463862955836     -3.72183820780400     -0.51534044539428
  C   3.58656448553390     -2.89209836050821     -1.06826123536339
  C   2.95479080690140     -2.00442286661330      0.00771513320927
  O   1.78269036434040     -2.20001623720241      0.29164675344436
  H   7.61628316911194      1.84674696543416      0.55543149376456
  H   7.44616962227688      3.58663683116449      0.86696778252607
  H   6.94542388367682      3.38797161398718     -3.29251484020461
  H   6.52872381678347     -3.95920108507821      0.19949051965387
  H   4.58777505170224     -4.71710827804460     -0.64002989403537
  H   2.80243936002229     -3.53394791932159     -1.46095927246806
  H   3.99578476167473     -2.27563486977043     -1.87519154804574
