22
Coordinates from ORCA-job 8772optt
  Br  1.51890151402121     -1.96185281323064     -0.10170741925300
  C   3.16957532364403     -1.09380839438123      0.05772577013461
  C   3.96661955556995     -1.11172738396794      1.15877643872611
  C   5.17658120645820     -0.25938703976538      0.97546061685655
  N   5.72803092178610     -0.11975386895273     -0.17095997172917
  C   5.08404826009800     -1.03582291780809     -1.04639264367065
  O   3.70624275306025     -0.72312727027630     -1.13003756685478
  N   5.59595939559660     -2.11204529245528     -1.38208824363754
  C   4.78714882110705     -3.31019688080676     -1.41186637902368
  C   4.10429902336086     -3.71958870549412     -2.58002041683720
  O   4.09152087329643     -3.09842893046561     -3.65651231354651
  C   4.77573535871057     -3.88169480535247     -0.11900740048124
  C   3.81857056693722     -4.71514839197123      0.48720694221548
  N   3.03758876673078     -5.60572595430873      0.02909853779018
  O   3.65377861847004     -4.43313238284816      1.98433427245873
  C   3.25408471688212     -3.16762548480700      2.17393010887445
  N   4.04616107485545     -2.19603867411976      1.99467955347179
  H   5.59880163288009      0.25996862440511      1.83275419315477
  H   3.56259239992983     -4.67117433267310     -2.46431190470812
  H   5.46526175631195     -3.43128919730242      0.57629506283359
  H   2.35375783175303     -5.88147984575679      0.72815614287864
  H   2.19273962854018     -3.07492005766133      2.42648662034700
