24
Coordinates from ORCA-job 8773optt
  Br  4.26718211805341     -0.00737037844786     -3.37168411701781
  C   6.08194445590526      0.55053070231233     -3.67952232544599
  C   6.26230186949269      1.73762138787527     -4.48429595595766
  C   5.98517537262459      2.88206769634036     -3.54014049993930
  N   6.82695027009503      2.71035463367984     -2.31486286991373
  C   7.36506826725597      1.54124010493258     -1.99504174294509
  O   6.81431597587146      0.41738487348024     -2.48600286328144
  N   8.45413137972179      1.33777504462891     -1.26083084789315
  C   9.42807824237086      2.26184445229837     -1.34655336953413
  N   9.30235740937860      3.48830711829679     -1.77066969707025
  C   10.35608256581823      3.92220209832687     -2.59726257131785
  O   11.52811940614811      3.99304957065962     -2.31738012733404
  C   9.73175032760272      4.11508469747874     -3.93980809824680
  C   9.98758654454850      3.26134466415932     -4.93080601098289
  N   9.14171197678795      3.08611999613948     -6.03380766859099
  C   8.05555229171096      2.44871743145485     -5.85201527760824
  O   7.71737750450682      1.82917618024171     -4.72994502363388
  H   6.26340792269358      3.85099604164399     -3.96035734121892
  H   4.93206846301789      2.90809015749560     -3.26112307963071
  H   7.48080133014877      3.46115337162542     -2.07284636337205
  H   10.42755655321273      1.86065707359250     -1.14870648299321
  H   8.79781056875387      4.66675336247880     -3.95997823810097
  H   10.87402190686003      2.63192260731507     -4.89568369248796
  H   7.32264727742004      2.36397711199117     -6.65267573548284
