21
Coordinates from ORCA-job 8776optt
  Br  7.14502378962790      0.80498303586204      2.39957543611998
  C   6.09447131349476     -0.74327477011747      2.04275229380321
  C   6.42619572127202     -2.02640441287712      2.41860503061132
  C   5.35673635801534     -2.96473572162630      2.31753585028623
  N   4.10416864707874     -2.55290012981095      2.45925942099134
  C   4.00520022964824     -1.22552994547556      2.58395816075701
  O   4.82100776738375     -0.48516977665497      1.65908127862198
  N   3.44452076184084     -0.58796501207464      3.55255690411517
  C   3.55258796989346     -1.22833488529376      4.76722326903139
  O   2.71734112217076     -1.31951666078807      5.63226774468487
  C   5.03101086132330     -1.61623227319765      5.10384677008419
  O   5.82583331511784     -0.72750973037636      5.30198901061566
  N   5.32612735872680     -2.94817881361340      5.35728004902204
  C   6.37992989677069     -3.58229932883865      5.05234894770651
  N   7.41547625212845     -3.36885078202314      4.16417149744395
  C   7.64000080037613     -2.42004287104657      3.13719575552930
  N   8.85137854483572     -2.09267182623846      2.93899957389658
  H   5.54863378971482     -4.02930390951368      2.25485111405061
  H   6.54198964859149     -4.52688881509034      5.57532994209405
  H   8.25850572932188     -3.87604237025555      4.39181286793680
  H   8.91086012266698     -1.47813100094936      2.13135908259775
