18
Coordinates from ORCA-job 8786optt
  Br  1.11995587008812      0.26178667458380      0.13716848369740
  C   3.04900855608529      0.10752714853197      0.10670696585904
  C   3.57551937357137     -1.17870982568871      0.15249819605907
  C   2.79948690271563     -2.46006917430542      0.27563371076129
  N   3.57969638313473     -3.65722701750037     -0.04471377319884
  C   4.83511946431567     -3.56289977036477     -0.07816258222193
  O   5.61465285841879     -2.48045500262353      0.08753291648529
  C   4.98645946234740     -1.25007758123898      0.11948674408615
  C   5.73663016694680     -0.11319320568259      0.06563462724120
  S   7.41510935944142      0.21715174532056     -0.00195044804145
  N   7.13855614943286      1.94511607029652     -0.05893614200835
  N   5.85757149424609      2.20657091996633     -0.03426215172006
  C   5.05551910452005      1.14906631620813      0.03259507144170
  N   3.69240816757571      1.23296853757564      0.04571424384993
  C   2.26034608632895     -2.64921730769285      1.64447229181763
  N   1.84844355228841     -2.79590304486138      2.70458102426414
  H   1.92922640880206     -2.44334328325939     -0.38406500015022
  H   5.44529063974063     -4.44009219926494     -0.26793417822199
