22
Coordinates from ORCA-job 8787optt
  Br  0.96189404657872      0.25294585175160      0.03321231871616
  C   2.83709271447774      0.10908190510445      0.25214860198910
  C   3.44521476346942     -1.08791827394568      0.24041954088068
  C   2.84492891186199     -2.47698224887762      0.29472723375284
  N   4.02112842682088     -3.29267832734108      0.58392182736295
  C   5.21752653551040     -2.59569200432265      0.29211276130031
  O   6.29460052355644     -3.15667423059926      0.22287264159967
  C   4.85648758764086     -1.19881961430264      0.13124214970371
  C   5.59054097317746     -0.06407226033541     -0.21280847570705
  Br  7.40500112942158     -0.19975328737991     -0.72741283203175
  C   4.97083583542427      1.21488006656433     -0.34380545034096
  N   5.44169327235903      2.32292610818660     -0.79898653233035
  N   3.62407323109704      1.27579332263943      0.20312923331330
  C   3.27372190987594      2.41577876701487      0.89428356702579
  O   2.27858267164136      2.53369050755651      1.57244447119459
  C   2.20423586374029     -2.87075157670775     -0.97032590703833
  C   1.70549508199467     -3.23279747072549     -1.99792395768301
  H   2.10414685681950     -2.54695722426553      1.09525184676266
  H   4.01301296622219     -4.25075485712701      0.26678873948897
  H   6.41064503862341      2.18721733584773     -1.07261991450987
  H   4.01654116962004      3.20537950258792      0.74782994826078
  H   1.26660049006672     -3.52884199132337     -2.91950181171020
