21
Coordinates from ORCA-job 8788optt
  Br  1.58890027822977      0.12098063367561     -0.34289731704045
  C   3.45874445062417      0.05202982331898     -0.08160707282819
  C   4.09500994268847     -1.14387237343581      0.03769568270802
  C   3.64554802098971     -2.53885275383901     -0.00376831366253
  N   4.57400902325075     -3.41101357561987      0.15530454672658
  C   5.81160475345645     -2.66821896654567      0.33493597292850
  O   6.87168272294672     -3.19814565729864      0.51992920420035
  C   5.49210179149231     -1.22152614694362      0.25041104205327
  C   6.25617111099014     -0.10269503012761      0.34383754572339
  C   5.63583918889025      1.17214940020411      0.21814619915003
  C   6.35026431404914      2.35260199409487      0.31882977442750
  C   5.72305549735901      3.62532023065160      0.19184838034280
  N   6.32936236694570      4.76519140636013      0.31929116728923
  C   4.23268360646803      3.62938114519458     -0.12107482080074
  O   3.65507492141272      4.67863223038870     -0.32620243436607
  N   3.56342655226276      2.42700812341257     -0.16598862669784
  C   4.19907890411140      1.28775748698804     -0.01626441599024
  H   2.61162489937958     -2.82898026737118     -0.16125395854566
  H   7.32560618657345     -0.16304680833962      0.51388933162681
  H   7.41948990907137      2.31878170920863      0.51055553682172
  H   7.31672155880804      4.59151739602322      0.52238257593352
