22
Coordinates from ORCA-job 8789optt
  Br  1.31058060852359      0.57826428604780      1.57821737537629
  C   2.98971387916137      0.37146323559523      0.73187966611976
  C   3.57201415699482     -0.83070394562073      0.63841384624811
  C   3.21987001739696     -2.18329843528291      1.03069282610158
  N   4.11953049230687     -3.04372719032548      0.68205838139499
  C   5.20353372099266     -2.34740507002799      0.03728910973758
  O   6.21634213260671     -2.90576193526484     -0.37498737665999
  C   4.85807756708534     -0.94385080463437      0.00497078989704
  C   5.51653110630382      0.20231954198402     -0.38216892244798
  C   4.95010011918304      1.47671780499076     -0.20774786688156
  C   5.69328773574529      2.61680626471858     -0.54512814125708
  C   5.66196482495198      3.94876593747606     -0.08541031777224
  N   6.55020541974484      4.87526424741973     -0.20864274707097
  S   4.25215946503103      4.52816264569217      0.87595526739032
  C   2.93109935668381      3.71832901148638      0.06011342968990
  N   2.70352512583707      2.49128107246161     -0.14312411966807
  N   3.61453307558398      1.52665010710013      0.29347174832426
  H   2.30403085430281     -2.46661709445005      1.53528805547980
  H   6.52234861668695      0.15268585917828     -0.77745658741036
  H   6.60510277084492      2.37747879259172     -1.08194841907642
  H   7.35644558940752      4.50082763293258     -0.70938441467424
  H   2.13500336462454      4.37434803593133     -0.28135158284072
