19
Coordinates from ORCA-job 8799optt
  Br  0.94809322683223      0.05151091501305     -0.02523737443403
  C   2.84694367828672      0.02982876173703     -0.03678342227160
  C   3.54409380641710     -1.19945744074363     -0.03916843625903
  C   2.87132775428195     -2.54201557535834     -0.03741027287397
  N   3.79943917978463     -3.66289526916166     -0.04304760809204
  C   5.03371649657859     -3.43439881893248     -0.04681446923555
  O   5.68875940245830     -2.25485916871475     -0.04702242126036
  C   4.92640325474595     -1.09375864119014     -0.04471276042950
  N   5.65473997848177     -0.00164625889883     -0.04838447917182
  C   4.96431425242584      1.16431222930636     -0.04751004140574
  C   3.53840207876371      1.21080405686837     -0.04170721414667
  S   3.05168319021360      2.86839475157305     -0.04257982458221
  N   4.59500997034440      3.50150018499800     -0.05016539870770
  C   5.47988334004317      2.47326752621522     -0.05161298064050
  C   6.87609769650270      2.75679048413277     -0.05668345222033
  N   8.00323388045495      2.99348643346636     -0.06021082461850
  H   2.21035374099806     -2.64873626043139     -0.90482626285727
  H   2.21836372831824     -2.65082792631005      0.83578516248646
  H   5.74714134406804     -4.25329998356892     -0.05090791927964
