21
Coordinates from ORCA-job 8803optt
  Br  1.00361789878619     -0.33941016050903     -0.22378674047806
  C   2.87961795889193     -0.18778241227007     -0.11459159760491
  C   3.52489907717718      1.03125183258679      0.04098257648815
  C   2.94516810502372      2.41707549347415      0.15104762267591
  N   4.13318425947769      3.25364383317273      0.14267627483457
  C   5.31175107104141      2.50439091336833      0.24716168818352
  O   6.40516096874448      3.00076448102207      0.41397534214487
  C   4.90742622412329      1.09905834950072      0.09617403425591
  N   5.74585004388770      0.06010953343534      0.01725888402941
  N   5.05310922376341     -1.12498742171457     -0.09605210309596
  C   3.68458699839839     -1.37201669023411     -0.18699521581095
  O   3.29640470326968     -2.53136007998478     -0.31361391347636
  C   2.14959449543485      2.62063506613003      1.40626481794998
  N   0.96085890586136      3.14281515057196      1.39879966129284
  O   0.59700320571643      3.16864239561864      2.73479036314794
  C   1.62640676749015      2.65964378906180      3.40314489907513
  N   2.61538472917434      2.30793562897350      2.66734972069982
  H   2.28209376606413      2.64043423561931     -0.68956709060165
  H   4.12391368237763      4.16126291699370      0.58034277953876
  H   5.62816974004682     -1.94807847128573     -0.16516085982592
  H   1.53279817524915      2.59197161646921      4.47579885657697
