20
Coordinates from ORCA-job 8805opt
  Br  1.20100740210259      0.59486849453956      0.18276718234238
  C   3.08346500642386      0.13967462585426      0.70310428559449
  C   3.61873014568814     -1.07454927560182      0.26280689330824
  C   4.94835372597368     -1.06655842923110     -0.13339207847326
  N   5.37590318550757     -2.37973382238045     -0.37770844145308
  C   4.41043371734050     -3.29212108550445     -0.08893434700759
  O   4.48058676670070     -4.48954389307688     -0.10671623488759
  C   3.11377857633990     -2.46399596911413      0.27145783896820
  O   2.52816464679879     -2.93532813073559      1.50449859739208
  C   3.33076419791529     -3.02488544908815      2.56471223215475
  O   4.51173137393300     -2.85184219559286      2.57591669467675
  C   2.08973124929683     -2.75017659174420     -0.75186260609456
  N   1.35482715568339     -2.98612374481916     -1.59832476030057
  N   5.73868552114560     -0.04109152575238     -0.28153432717514
  C   5.17153021112276      1.17300019023805      0.03050732614711
  N   5.71121384261773      2.31064601930298     -0.12489486860521
  O   3.90522377329598      1.21540450089898      0.61982967724212
  H   6.33944423604645     -2.62693572850826     -0.53373554482119
  H   2.73042906302144     -3.29616691777638      3.44186345810769
  H   6.63099620304550      2.15045892809206     -0.52636097711566
