19
Coordinates from ORCA-job 8807optt
  Br  1.19838800345556      0.06118721959966      0.02304891908960
  C   3.08020601444664      0.03239474442261      0.02811017595766
  C   3.87809033290061      1.15781094110150      0.02979022117981
  C   3.83047728287364      2.66628235286074      0.03027066901654
  N   2.81292004034765      3.40822123481706      0.02923017525294
  C   5.30988128108751      3.21125319480626      0.03335715157126
  O   5.54145589368207      4.42417070361814      0.03414209459261
  C   6.08796611058585      2.01971419947736      0.03469643421016
  C   5.23866622804124      0.92974492845730      0.03269364273523
  C   6.01078261930115     -0.22459637656100      0.03457489176766
  N   7.30477144700234      0.07789854148109      0.03754300970204
  O   7.35029728904320      1.53356078492397      0.03759515060922
  C   5.17529519890830     -1.38699009960463      0.03317637769369
  C   3.78184433508655     -1.20208298712045      0.03006513585178
  O   3.18412631979326     -2.40761919865388      0.02939511479500
  N   4.14975488508968     -3.39899231972534      0.03210815438424
  C   5.30198218877772     -2.80065953141816      0.03428472684048
  H   3.15789077120501      4.37707895543985      0.03051620083499
  H   6.20120375837197     -3.39737728792210      0.03640175391507
