21
Coordinates from ORCA-job 8830optt
  Br  1.01017760900609     -0.01295100592475      0.17425440557084
  C   2.89210091699048      0.02813339584680     -0.01246608026726
  C   3.63949308881541      1.21974169194856     -0.01436047548729
  C   3.07944448237755      2.51581558173236     -0.02762631475626
  N   3.73717992156596      3.65529451632398     -0.06219841570411
  C   5.11355915018315      3.64895625755051     -0.08384248364186
  O   5.77701788577789      4.69210651514656     -0.11648923875998
  C   5.76986201105317      2.34633484391915     -0.06797559451211
  C   5.07520492300252      1.17530649320851     -0.03779944374206
  C   5.76665555513414     -0.12776147517786     -0.01633310181750
  C   7.27353305514901     -0.15571919820385     -0.07823121577011
  C   7.92620346442680      0.17542865819425      1.23723047879607
  O   7.38118187910093      0.35513830324253      2.28210662037322
  C   9.42039267599380      0.21694823454300      1.17111185089913
  N   10.56367617634032      0.20826666277860      1.09296101981650
  N   5.22255318886842     -1.28191934824263      0.06853676885825
  S   3.59468552709013     -1.54902029131965      0.15050314845236
  H   1.99571246283584      2.59500865297370     -0.00721285629633
  H   6.85217903081537      2.37760570467133     -0.07252004357568
  H   7.67512215691995      0.52040173532436     -0.83754997121465
  H   7.59906483855294     -1.16611592853547     -0.34009905722118
