22
Coordinates from ORCA-job 8831optt
  Br  0.82436105733960      0.21664863349935     -0.09213300670923
  C   2.72569006631253      0.09771599202684      0.01001119339819
  C   3.54201884512963      1.20916782476034      0.06528769675738
  C   3.16225076082409      2.66687680299649      0.10111477613355
  N   2.04716406607752      3.25415224342575      0.12194860471646
  C   4.48159337150643      3.45977883662631      0.13445418290942
  O   4.54523452099402      4.67847039151371      0.15690533270860
  C   5.51623672072347      2.48117934130467      0.13430606105962
  C   4.96222149902247      1.19453157211021      0.09732729040972
  C   5.77324646893197     -0.00760898707448      0.07706849677235
  S   4.94331354118631     -1.56773302231772      0.07415838010186
  C   3.16722315275445     -1.25904406291446      0.01713522528051
  O   2.48391487254438     -2.26633276553819     -0.00955274012450
  N   7.05270783296909      0.05802268000709      0.06744345566457
  C   7.81464901694603     -1.15755700165681      0.03937757719735
  C   9.29037741984243     -0.85004865702403     -0.04249689396312
  O   10.14610146834222     -1.68812505809009     -0.13514393804575
  H   1.27606746516441      2.59024255885852      0.10082020118894
  H   6.57395722696692      2.68626457244197      0.15655475247551
  H   7.56014671138815     -1.80387897991531     -0.81423656719067
  H   7.65406116043292     -1.77763980608509      0.93501540327822
  H   9.53546275460084      0.22891689104492     -0.01136548401897
