23
Coordinates from ORCA-job 8836opt
  Br  1.35139924496440      0.23265174988111      0.82880149526123
  C   3.07782545610307      0.08697517077878     -0.08811145518328
  C   3.73442203419668     -1.15860250476823     -0.17010718736625
  C   3.37219238245101     -2.48918634258785     -0.37727909516098
  N   4.47101302065090     -3.28116010380943     -0.46471995721727
  C   5.53139830295490     -2.47301216495963     -0.31577715214392
  O   6.81991774458292     -2.94489141728958     -0.34111060324132
  C   6.92375133876482     -4.33244834210812     -0.48197693420096
  C   8.37504884355086     -4.64940946030418     -0.46993247931901
  C   9.50400569302731     -3.91957443872707     -0.36190589035647
  N   10.60285805508715     -4.77345337928635     -0.41783338318721
  C   10.08868909066287     -5.93994346720961     -0.55285013439075
  O   8.74181910391651     -5.95676131455935     -0.59415181334520
  C   5.16916391348530     -1.15140077211814     -0.12714161031187
  N   5.90644391549130     -0.00414858445327      0.11548560868686
  C   5.22749301026369      1.04985668068049      0.27612596276221
  O   3.86477476711341      1.18096519573949      0.20465315662953
  H   2.37769617416586     -2.90175111092520     -0.45802210344164
  H   6.46129383702386     -4.67480425383491     -1.41460992890075
  H   6.40521641533008     -4.85464012013055      0.33011517470299
  H   9.59312922991654     -2.85416733836774     -0.24947237554518
  H   10.59075501385931     -6.88949960265161     -0.63690362184336
  H   5.67969341243684      2.01140592101117      0.48272432711263
