21
Coordinates from ORCA-job 8839optt
  Br  0.95265319360779     -0.48918313902028      0.03983509322705
  C   2.75886794011100      0.08500546455817      0.00999925844295
  C   3.13534166939938      1.48399684541457      0.01188035206925
  C   2.13097028037907      2.46995088186178      0.06330638116207
  N   2.07823122925079      3.79662064417276     -0.02203126561376
  C   3.11860514606466      4.66149531535162     -0.14302788909498
  O   2.92191798264841      5.85152380119724     -0.37823345380421
  C   4.55286017962754      4.27719732103258      0.02335851527058
  C   5.12883404612204      3.07033525613021      0.03862362276603
  C   4.56308383743108      1.73755402720281     -0.01515766558636
  C   5.48506178879663      0.69919240315060     -0.04893142791895
  C   5.07241540826095     -0.62042690682004     -0.06213242764877
  C   3.70115701229098     -0.89973007421531     -0.02765040982715
  O   3.39938113688146     -2.24151828066714     -0.03340360473885
  C   4.48492656839691     -3.05168268734458     -0.06381201455217
  O   4.40254980325353     -4.24064637321504     -0.06762080633593
  S   5.98555403644295     -2.10823484128197     -0.09527739466847
  H   1.13780577709247      2.04827460745631      0.17522815154186
  H   5.19884002463188      5.14657542744749      0.06771214012129
  H   6.21473021407290      3.07046930985636      0.09950706256935
  H   6.54121272523752      0.93923099773184     -0.05717221738082
