20
Coordinates from ORCA-job 8935opt
  Br  1.92477782499774      0.99195375791330     -1.34509072273346
  C   3.35152082300735      0.47005644541608     -0.03924444093248
  C   4.44130286738493      1.36020670435731      0.17827363203894
  C   5.76908547332175      0.84831845057797      0.20031318372016
  N   5.89219765020273     -0.51575326580093     -0.07587224617455
  C   4.88308010064205     -1.43228955763535     -0.19083544608854
  O   5.07529866908499     -2.62518566453496     -0.31636166587867
  N   3.62821262845430     -0.87956498069733     -0.13339531105640
  N   6.90959767224579      1.40185942090079      0.51649966247841
  C   7.15214564360656      2.74365345062600      0.55228525063262
  O   8.06778852881778      3.25077917231250      1.16011953624821
  C   6.21041662230720      3.60203391852420     -0.27959152154266
  N   6.59694449464178      4.13580151453764     -1.35910553568123
  N   4.95096937159507      3.76634881039450      0.28964655736956
  C   4.18563974772570      2.74551119561400      0.46190093364845
  C   2.88141770790069      3.06255978748468      1.04090920941047
  N   1.87934501311873      3.32767331425136      1.53075350328648
  H   6.83054289997104     -0.88348552356529     -0.02706971928267
  H   2.86936398845408     -1.53383330124210     -0.24636923216772
  H   5.82535227251936      4.67135635056553     -1.76176562729492
