23
Coordinates from ORCA-job 8998optt
  Br  1.85062298112855     -1.08551743638877      1.65238894231932
  C   2.44274027092091      0.03009309314029      0.22708389230617
  C   2.25816210162947      1.36330871930058      0.15889929441058
  C   1.56858844837196      2.14198605043043      1.19067842531769
  N   0.41332767482718      1.84654180038227      1.62724591422699
  C   -0.42611238865322      2.71927957890900      2.27325129499934
  O   -0.96124325766510      2.54535825880634      3.32829040814830
  O   -0.80954606021010      3.81906879914203      1.51794759237694
  C   0.03383597489047      4.35260973457331      0.55799213942697
  C   0.40610965121771      3.73692465209856     -0.55347746189005
  C   1.57901745715925      4.24234915519347     -1.33903827872601
  O   1.57711954653298      5.40956673962968     -1.78604594424832
  C   2.67177444813964      3.35033257937830     -1.47639836744993
  C   2.93064364956198      2.06652972866171     -0.95082679035246
  C   4.07731503322155      1.34721774727865     -1.41531118161033
  N   4.30383290524530      0.08042912301234     -1.27710617036856
  N   3.21757015940869     -0.61828220821952     -0.70961825587843
  H   2.09793936615393      3.04941863668186      1.49237487058069
  H   0.44386474136030      5.31384666828657      0.84735704032729
  H   0.01068603168349      2.75398618835324     -0.78389338036713
  H   3.44647531052507      3.73849729757647     -2.13331634193695
  H   4.86738666056129      1.89366473077263     -1.92384942982578
  H   3.48588929398866     -1.55820963699946     -0.47062821178632
