30
Coordinates from ORCA-job 8999optt
  Br  3.77454136159780     -0.65797143921705     -3.27256657384167
  C   3.28386150344820     -0.02958230890534     -1.52470616554775
  C   3.40810241606187      1.36481161630227     -1.28804295088036
  C   2.88181426310920      2.38524992873191     -2.24388856779434
  N   1.40429569787708      2.54155152482030     -2.05402863952106
  C   0.98488218057624      3.34698720327552     -1.04993817708223
  O   1.50244766502528      4.38469846716132     -0.69351287290175
  O   -0.15933604668546      2.85521923305859     -0.48473798320179
  C   -0.48821903163711      3.31435271813176      0.81675162136316
  C   0.12522006440749      2.40252359601091      1.87351181288265
  N   1.52672062522368      2.69621126030017      2.13308917045913
  C   2.39016182337048      1.53560528238449      2.32660731591870
  C   2.72761637629713      0.89906605037086      1.00422377720438
  N   3.20313737117863      1.75751639599435      0.06193069550193
  C   2.60232639851932     -0.41949699078463      0.75529520757129
  C   3.00414296665629     -1.00899710882024     -0.54466832444660
  N   3.06348212292906     -2.30473526111482     -0.73636837540734
  H   3.06574523231340      2.08468853962818     -3.27145117334767
  H   3.30658854155784      3.37559035671964     -2.07760441826626
  H   0.93976664049868      1.64106835563383     -2.04396206423662
  H   -1.57711175585423      3.27668189421358      0.87759470183087
  H   -0.14856236794580      4.34364380111872      0.94189580853927
  H   -0.48282692206144      2.45786738473679      2.78763458458814
  H   0.05581976731662      1.37752759750258      1.49949514810413
  H   1.63240102808649      3.36688741856763      2.87917127269722
  H   1.95419023897487      0.77155118605894      2.98325643497772
  H   3.31332078634568      1.89180125204451      2.79271595462196
  H   3.09279438291018      2.74318831885486      0.25565642289304
  H   2.22133689830770     -1.07829091298800      1.52662895421128
  H   2.78833977159480     -2.77221535979164      0.12501740311058
