24
Coordinates from ORCA-job 89optt
  C   -2.28534975872222     -2.46810527972284      0.29679844144868
  C   -1.72125475267356     -1.18304517436777      0.23400537917741
  C   -0.36976294051206     -1.00818863489213      0.42038710915899
  C   0.45912482381818     -2.11303124264216      0.67607323555806
  C   -0.07653570052688     -3.41217716174348      0.73852091472365
  C   -1.47920298545206     -3.59375202518367      0.54497928873824
  H   -2.37686004603249     -0.34602072136897      0.03482888772976
  H   0.08319143831971     -0.02709755805471      0.37395208846931
  C   -2.01472072421616     -4.89298247098886      0.60646475273965
  C   0.72946447085123     -4.53775509640705      0.98740663828878
  C   0.16515836332387     -5.82268754209397      1.05170003426130
  C   -1.18620903117592     -5.99761600159226      0.86427542556180
  H   -1.63926079986105     -6.97865080793266      0.91103282898837
  H   0.82050331104026     -6.65957811220446      1.25232787354940
  C   -3.43931818519163     -5.08087882211640      0.39446200524999
  C   -3.71372945440662     -2.65079784223563      0.10795132677016
  C   2.15810931208124     -4.35504085252653      1.17483994227398
  C   1.88420620153160     -1.92529824371170      0.88444581602522
  O   -4.18686302261478     -3.94503712490042      0.16450584014999
  O   -4.51854796879450     -1.77711764816348     -0.09207654990676
  O   -4.02180695798003     -6.13527040798875      0.40209583703168
  O   2.63170777858668     -3.06112091143055      1.11480538121384
  O   2.96271863187526     -5.22851166570883      1.37657024146222
  O   2.46723799673193     -0.87123865202266      0.87364726133627
