23
Coordinates from ORCA-job 9003optt
  Br  2.16994379688427      1.69591385105640      1.72065568002911
  C   2.96846648134136      0.36276897216378      0.63131711456253
  C   2.51674421715240     -0.96879855793394      0.66111112522217
  C   1.61945068739449     -1.51686006686718      1.57113118303756
  N   1.42296313144354     -2.83171153904132      1.56285701319863
  C   0.41187923796368     -3.43661230065146      2.18064069216590
  O   -0.39305901159144     -3.10830942396967      3.02083880847653
  O   0.32726900368832     -4.76072576065701      1.66078407769575
  C   1.00007002340441     -4.90130556628770      0.48627031412403
  N   1.75511522037230     -5.89441130380870      0.30453247491395
  C   0.56609011402332     -3.93704302373906     -0.58916089449477
  N   1.22080726380594     -3.09572130886976     -1.25864260621445
  C   2.58716437959226     -2.79382480173380     -1.11719775228273
  C   3.13374812496084     -1.82365392065744     -0.37889567711058
  O   4.48328997765105     -1.56211017406979     -0.66101082285526
  C   4.82857793426085     -0.25199436381665     -0.72661867634442
  C   4.09507820236682      0.72440789309163     -0.13706056762972
  H   1.09204673470579     -0.86739471151789      2.26910146284191
  H   2.10536299834651     -5.88096463587698     -0.65143814368322
  H   -0.50217666488987     -4.01437353546797     -0.81099117754386
  H   3.23316196919210     -3.28352753858329     -1.83889845165012
  H   5.75830504099616     -0.08729605836086     -1.25099866392631
  H   4.42070113693488      1.75154787559866     -0.20732651253264
