23
Coordinates from ORCA-job 9006optt
  Br  2.64310340444450     -0.47930637102027     -3.28965692090189
  C   3.01876983082015      0.02834699317905     -1.47244516884971
  C   3.40845524127168      1.35964989960083     -1.20511884810592
  C   2.73934832798242      2.49090695728684     -1.95723100724012
  N   1.39299672095702      2.65494633109292     -1.32195951753047
  C   1.38699697096241      3.26540398169452     -0.09290412722644
  O   1.98403927978012      4.27237893310418      0.18901837233192
  O   0.60161508369934      2.58531667788764      0.79874485632092
  C   0.87066470442900      2.79028045080606      2.18337777788710
  O   1.72236910289340      1.79827668672699      2.68819018808121
  C   3.05974016849576      1.99228458682415      2.30665286719259
  O   3.67747424347776      2.92630780083274      2.74167705917946
  C   3.45825514160007      1.08387987397160      1.23567154568290
  S   2.94471486968883     -0.57807807799822      1.22145685337693
  C   2.88143508759181     -1.03108389905050     -0.55477285643837
  O   2.64449164209433     -2.21025451420515     -0.75837762778551
  C   3.78755069014574      1.76683138521534      0.08159780246574
  H   2.58484124280628      2.28272900245363     -3.01170928281206
  H   3.26651264839685      3.43492594460992     -1.84130260714290
  H   0.92236317910026      1.75741578495155     -1.28026544256205
  H   -0.07939371725498      2.66942435096062      2.69423715737984
  H   1.30029551780146      3.78165461110186      2.32541632889836
  H   4.01736061881576      2.81776260997367      0.21470259779848
