24
Coordinates from ORCA-job 9010optt
  Br  1.06368013344343      0.36530190510813      0.81821453911554
  C   2.86615065769266      0.19718861361072      0.26864015382653
  C   3.50472933928909     -1.07179337981212      0.20061079406884
  C   4.94737262709491     -1.05049135941429      0.21859734917178
  N   5.71741877248011     -2.22762192639010      0.32664398747983
  C   5.33638854748630     -3.49996276185338      0.55420872745573
  O   6.13054135998168     -4.40049184009521      0.75378066463920
  S   3.60954277233520     -3.85523392878779      0.51790754622737
  C   2.79981483648710     -2.30117444223525      0.01266519427835
  N   1.60059682726582     -2.37864837749022     -0.44986922546962
  C   0.93080064790562     -3.65231839733403     -0.50319067174707
  C   -0.39672405189579     -3.53849559255943     -1.11761647000552
  C   -1.48349086610555     -3.47756776738889     -1.61851678558449
  C   5.61661966189441      0.11121107303619      0.09385771495224
  N   4.93588048967809      1.30337184352115     -0.09686562948790
  C   3.56065982752502      1.44444983693131      0.14771688468538
  N   3.00502802387213      2.61206537542978      0.23384331545626
  H   6.72070447960529     -2.11155145160320      0.34414804602067
  H   0.79521216880273     -4.08510783794886      0.49939145491807
  H   1.50448906965566     -4.39482341155416     -1.07706970943514
  H   -2.44530728791634     -3.39831596852011     -2.06277430438141
  H   6.69653200307286      0.16392013383549      0.08577731246792
  H   5.46624602804657      2.15522877764838     -0.03984059317498
  H   3.70411393230291      3.34286088386593      0.11673970452243
