22
Coordinates from ORCA-job 9011opt
  Br  1.28088826158206      0.36787819580648      1.48193378937380
  C   3.06913360688820      0.05140271624873     -0.12316586442646
  C   3.73193546936313     -1.14275547463457     -0.13988031524644
  C   2.91569822525656     -2.37513003214373     -0.21265888931253
  N   1.65674501358987     -2.43074394960080     -0.37293117652386
  C   3.55982204273580     -3.75567449395971     -0.10755054753502
  O   2.92598542849463     -4.77277875033655     -0.07168956588938
  S   5.32653709137159     -3.91477430943341     -0.06838062156164
  C   5.93987408058751     -2.29049776939353     -0.08762133175963
  C   5.19432962871777     -1.17238368788741     -0.10780821914333
  C   5.85614933868776      0.14187165620956     -0.09001040947509
  C   5.13966765922421      1.27782795660782     -0.12297464220315
  N   3.75821825972690      1.25124141105058     -0.16132734085673
  C   3.06389694898325      2.45148162007045     -0.30439712082981
  O   3.60488830690513      3.52539315049562     -0.37343413105400
  C   7.28063828224401      0.23261869998335     -0.04522228324570
  C   8.47946662523222      0.29227779363177     -0.00521672154682
  H   1.26794979923116     -1.48862619605117     -0.43065335302998
  H   7.01956421291385     -2.24026221328035     -0.05980083104871
  H   5.58049675181401      2.26343187591508     -0.13556348164052
  H   1.98343246432768      2.28944047129750     -0.34961624059664
  H   9.53968250212221      0.35376132940431      0.03396929755160
