26
Coordinates from ORCA-job 9015optt
  Br  2.25920450237357     -0.73069513500326     -2.67578012963643
  C   3.22914044998155     -2.09403569237034     -1.58000762461626
  C   3.29785759480386     -1.66967026040121     -0.16463597404341
  C   4.31051965494073     -0.60603655293175      0.09779364505139
  N   5.54025392411960     -0.85337712135742     -0.19370266582789
  C   5.84588163078788     -1.98438435961943     -0.91643530701174
  S   4.78120428225611     -2.51909274441127     -2.19014120082532
  C   6.89273425756560     -2.84788763574486     -0.44994290869296
  C   8.18292790182998     -2.16006664778739     -0.00980190693458
  C   9.21515979849915     -2.22643587045182     -1.04094785186796
  C   10.06402485531258     -2.28005038266082     -1.88626626176965
  N   6.85819177166399     -4.14423663140340     -0.35427821279989
  C   5.61445608782348     -4.77547077578947     -0.34320453059347
  C   4.67457188699290     -4.45043852941417      0.55437216606097
  C   3.24544281991742     -4.76787473960236      0.50117365220572
  C   2.32862125100119     -3.80136798687852      0.65974049428423
  C   2.79527115206837     -2.40017170715637      0.83700981173128
  H   4.06836612079790      0.31779690112703      0.61615625924503
  H   8.55351379144596     -2.64750231447481      0.89387975097396
  H   7.96130282794679     -1.11608312335455      0.21442375779952
  H   10.80511885637683     -2.33474925630561     -2.64528247119900
  H   5.43488132309500     -5.53447038188977     -1.10290302223561
  H   4.95033451489831     -3.65477961321860      1.23982547569393
  H   2.92433672615587     -5.78344723768422      0.28711278221499
  H   1.27008207201629     -4.03449281147290      0.62293738264751
  H   2.94759994532864     -2.03897938974242      1.85390489014566
