25
Coordinates from ORCA-job 9016optt
  Br  4.46087639321265     -3.00227013012960     -2.32986566143452
  C   5.22797801283285     -1.20054679222184     -2.04152316348177
  C   5.99806095550961     -0.62140674026541     -3.04410836448599
  C   6.99351157184262      0.34260733057139     -2.66572664770844
  N   7.60901746113928      0.34549937828138     -1.51597082528678
  C   7.28238970919123     -0.68232535103805     -0.65869237184322
  S   5.48527097584592     -0.77466504718851     -0.36980293552264
  C   8.11025895194869     -1.72913362399295     -0.42671102493876
  C   9.14582835603210     -1.93417332668198     -1.47699470920592
  C   10.54596261755811     -1.65647719347989     -1.32180610208059
  O   11.37426510989033     -1.63621552605994     -2.22904044826189
  C   8.59170006483065     -2.07112986571953     -2.72326756759526
  N   9.16699447315128     -1.83206278946291     -3.92434001039222
  C   8.45397711384040     -1.49523780703958     -5.06709149164505
  C   7.16365560994871     -1.17254541763118     -5.29009677110250
  C   5.92450578659260     -1.01088093971841     -4.47207032609473
  N   4.83743512187197     -1.21245224103436     -5.11511463701366
  H   7.28423863761756      1.09946198488365     -3.39096344501795
  H   7.84664504557141     -2.48816604690675      0.29902571142456
  H   10.87282883307778     -1.43993079704701     -0.28852206975443
  H   7.54361437154321     -2.32682576626477     -2.78797465548597
  H   10.16648047379980     -1.66303304932237     -3.90215371535296
  H   9.09180119819424     -1.50989228345457     -5.94394293717707
  H   6.93644002688091     -1.05409286774888     -6.34338196216273
  H   4.04526312807592     -1.07310509132789     -4.48686386837946
