23
Coordinates from ORCA-job 9018optt
  Br  3.13513088778172     -2.02427728500189     -1.63885481174792
  C   5.06443448634949     -2.00005452898588     -1.61944981909258
  C   5.91591992352310     -3.00193140928584     -2.33136651863251
  C   5.86309460801420     -1.55331551983626     -2.79714060428985
  N   6.92229526520686     -0.65847078923716     -2.43276654425685
  C   7.35590061272771     -1.01085591092336     -1.12691635815919
  S   5.87995141115765     -1.23447078954437     -0.16360691254911
  C   8.57293762886652     -1.68770971963803     -0.89455138057221
  C   9.34871429766202     -2.45346634521270     -1.80319082940850
  O   10.47528246789956     -2.92996255695195     -1.60630411094905
  N   8.61396089783412     -2.81328111287009     -3.01586686705982
  C   8.67907968501364     -4.00472027888500     -3.37711008128522
  O   7.85516435354613     -4.51743955669839     -4.36113019248494
  C   6.56330023988403     -4.09086768721152     -4.54839655277838
  O   6.16993830023706     -3.89130307927627     -5.65278006063305
  C   5.60661368386554     -4.03685518922070     -3.34135043886920
  N   4.64108278654224     -4.85003314558983     -3.37975948904481
  H   6.78772679112833     -3.24307225471197     -1.73719337352431
  H   5.35156324536993     -1.36782384121242     -3.73378145903813
  H   7.69494239759792     -0.74024011863663     -3.08372358822105
  H   8.94878117674855     -1.71521182346699      0.12188586067164
  H   9.35471393125330     -4.76214123617135     -2.98618958510804
  H   4.03747092179020     -4.70249582143136     -2.56845628296683
