25
Coordinates from ORCA-job 9019optt
  Br  2.10040609877102     -0.35937614300248     -2.50768054551978
  C   3.14435451767512     -1.70936302995051     -1.49289709465557
  C   3.12673172406827     -1.53728171526691     -0.03247587523349
  C   3.96595584250897     -0.38825239583424      0.41614996992525
  N   5.22563255569583     -0.39289537634588      0.15532490404100
  C   5.69958195605757     -1.42074006490055     -0.63351393428134
  S   4.76929509809537     -1.92562652951788     -2.02059457198051
  C   6.71575102633978     -2.26671171132220     -0.10162822911480
  N   7.89860825960597     -1.68226196292440      0.38452827932070
  C   8.37922248591500     -0.45972461565742      0.04747937277978
  O   9.33799662071160      0.05695764698094      0.58478686897755
  C   6.49530667054022     -3.62397781764262      0.11310935186753
  N   5.20229014710938     -3.98206084903586      0.17017715645919
  C   4.57159536557239     -5.08022963024041      0.33592741291847
  C   3.10944327393562     -5.02610805853293      0.32675376635664
  C   2.36926298333291     -3.90410137728312      0.41423012044432
  C   2.89550885474145     -2.57145337321057      0.78464920467151
  H   3.55895612072161      0.44083541415858      0.98985991842753
  H   8.38568955241156     -2.14990758966349      1.13598487583193
  H   7.81345470204334      0.01333495731988     -0.76471592725390
  H   7.32196546535236     -4.30540585416720      0.33379546043500
  H   5.05938418848058     -6.06078093414230      0.42373424053140
  H   2.59111125467783     -5.96529501851957      0.15365717959389
  H   1.30237859979462     -3.97842031012599      0.22607655099804
  H   3.21311663584151     -2.46615366117280      1.82128154445968
