23
Coordinates from ORCA-job 9022optt
  Br  1.25370020458033     -0.19826215480305      0.01989242459722
  C   2.53707060027656     -1.73096518539212      0.06916173649157
  C   3.55851262726248     -1.59335281647367      1.05541946786241
  C   4.34124887335434     -0.36323082078617      0.70868486204930
  N   4.94523811296339     -0.33847782350413     -0.42517617064685
  C   4.84993597452428     -1.49050582556381     -1.20532181794544
  S   3.17926263315253     -2.14637607067310     -1.47379836597347
  N   5.88126332883114     -2.09936349205552     -1.63869613370005
  C   5.71634438697171     -3.45516513882934     -1.96758876230861
  C   5.84655587675582     -4.32836559848719     -0.96930768852654
  C   5.33602532676817     -5.71196725447105     -0.93979469220748
  O   5.59860900305826     -6.60164383894290     -1.69616767259235
  O   4.50820449220804     -5.94841306616574      0.12725247233196
  C   3.67456522571505     -4.88821420278667      0.58135966562498
  N   2.50971310645679     -4.89247277941654      0.10613366699862
  C   4.32608327596704     -4.01320871745307      1.54622989169308
  C   4.28597153841780     -2.64253998972102      1.66032481369406
  H   4.38356573235732      0.54130173876977      1.31449735688136
  H   5.43630984822501     -3.74188320102910     -2.97762498820857
  H   6.11367464998165     -3.91858819247019     -0.00656405437080
  H   1.98385606040531     -4.10571726028931      0.48964237537612
  H   5.08659853161394     -4.51693719946314      2.13195624364843
  H   5.05369059015291     -2.26365110999286      2.33448536923105
