28
Coordinates from ORCA-job 9027opt
  Br  1.50524233801919      0.62564844375916      2.73806020642304
  C   2.34234538461057      0.63461053731544      1.00959305710051
  C   3.35645303071613      1.58078151772616      0.81929522458970
  C   3.16006915888985      2.98867813183847      1.30439500615470
  N   1.84694316689935      3.57997954817162      0.95483733191809
  C   1.46293752950857      3.44467604012139     -0.43359363757048
  S   -0.24133366542605      2.88441381854663     -0.73460664038350
  O   -0.58971132187879      3.50423051047255     -1.98378648610125
  O   -1.01445569720917      3.13604533258031      0.45306537115122
  N   -0.31374257401902      1.27870197404881     -1.01389266642764
  C   -0.55768902483534      0.26577256077673      0.01158681906018
  C   0.53845101414318     -0.81810738184114      0.04306074058933
  C   1.88723030635166     -0.16580555531747     -0.01086048206749
  C   2.57119024677146     -0.11001641150181     -1.24482388813986
  C   3.75436380685076      0.65188468310986     -1.41390965559574
  O   4.49604950106446      0.68922226025336     -2.37697500957873
  O   4.09762800876476      1.49917215051176     -0.35354498432581
  H   3.94855328515034      3.60664183544297      0.87131308866167
  H   3.24027452425174      3.05912274616221      2.38937854030994
  H   1.11847335912147      3.21514492183275      1.55868900206144
  H   2.09547630981210      2.75113720589337     -0.99723509838969
  H   1.46789050020293      4.40670807784557     -0.95044897347970
  H   0.30683080311621      1.00035116037525     -1.76789723353584
  H   -1.52891428582031     -0.19965906003182     -0.17778720442610
  H   -0.61965099687893      0.76828697210786      0.97421589529471
  H   0.42410765603112     -1.48557315805558     -0.81421082230113
  H   0.39396668545917     -1.40976932749166      0.94908403172017
  H   2.26602095033250     -0.72627953465278     -2.07900153271171
