20
Coordinates from ORCA-job 9028optt
  Br  1.10240513646562     -0.16254418256003      0.18822982746651
  C   2.98249350768048     -0.03529176518804      0.07467418177208
  C   3.76459748364401     -1.18025178186680      0.01575690085159
  C   3.75269261111859     -2.61365744930863      0.07714923791047
  N   4.96264837046368     -3.16430726426023      0.06276673750607
  N   5.81575981556627     -2.08467942302355     -0.03351475901497
  C   7.13018768407519     -1.72280363849111      0.05629607067944
  C   7.24203561004965     -0.32645125999143      0.05436475158531
  N   8.56695360660347     -0.03042185200360      0.10475661344641
  N   9.25082682173397     -1.12723004368062      0.13756090765467
  N   8.38737358480954     -2.18032206207391      0.09778992556352
  C   5.89665468799649      0.22772620941732     -0.01378306908103
  C   5.13392563485119     -0.90736936390992     -0.05612487263359
  C   5.13811727954538      1.45862185359170      0.05431942673209
  N   5.59021448129950      2.65513191117949      0.12587810263231
  C   3.57790601220689      1.29957901869405      0.06249993357315
  O   2.88866632967681      2.31030538037873      0.07608945270777
  H   2.89133340591174     -3.26132239076330      0.13068870560114
  H   8.74744460286034     -3.11646995483878      0.13090637046929
  H   6.61076333344110      2.62375805869867      0.11369555457775
