19
Coordinates from ORCA-job 9029optt
  Br  1.12871350979638      0.61260196974992      0.09041498005739
  C   2.97255614579737      0.20617640932028      0.09101726859845
  C   3.92348785798111      1.21557657680757      0.09166305856496
  C   4.11905558306997      2.64121523896828      0.09183352585774
  N   5.39182393979349      2.99796229851161      0.09218617900717
  N   6.07816785091547      1.80747334724272      0.09240241021027
  C   7.35254610953893      1.27440864165306      0.09239846609594
  N   8.61113984089014      1.64265491157220      0.09266357479628
  N   9.22565309414983      0.45593575708237      0.09200350730488
  N   8.47127303558553     -0.63964874371851      0.09231186823672
  C   7.23785251864148     -0.15521306388514      0.09214609701552
  C   5.82625717576450     -0.50395709276279      0.09193735150199
  C   5.23732754968216      0.74409979509070      0.09207457808359
  C   4.90208259842661     -1.60781065401981      0.09128901539900
  O   5.17587330782143     -2.79247570886847      0.09068539653552
  C   3.36738631803137     -1.19719293906126      0.09078411428242
  O   2.54208553646103     -2.10147952515127      0.08990107450418
  H   3.36129341873972      3.40885343356691      0.09162960686256
  H   10.22742460891343      0.39781934790163      0.09165792708542
