22
Coordinates from ORCA-job 9030optt
  Br  1.78193542289791      1.59600814290560      0.93889402825696
  C   3.39928818410006      1.04769547368099      0.10712568920426
  C   4.32296898276154      1.89041279058328     -0.40225322663166
  C   4.73594454290214      3.32890100052844     -0.21925952254687
  N   4.09532693021645      4.39382040085700      0.08002501492026
  N   6.14453458576654      3.32515092796017     -0.42025346857899
  C   7.15097047999472      4.13396199947483      0.07202856649709
  C   8.38772073278111      3.56053819014879      0.33121624521934
  C   8.70164317248193      2.18470812480925      0.22232579567099
  C   7.66316093549480      1.34233100736088     -0.25142509696233
  N   7.34160098563444      0.01799617454451     -0.08896210634556
  C   5.99780177120226     -0.04670244432004     -0.34547839247637
  C   5.49833375471558      1.18648160954307     -0.78696659247939
  C   6.54840368479864      2.04470672736299     -0.74056763397502
  C   4.96843048051105     -0.96842162721220      0.08567631139987
  O   5.00576889362584     -2.13625601115938      0.42633037354348
  N   3.67925088460606     -0.30220908128287      0.15414561711659
  H   3.10799113304485      4.18033671468284      0.18791600756782
  H   6.90069779710836      5.15910580997828      0.29521206822966
  H   9.14580304731680      4.22938577723539      0.72062519406712
  H   9.63710226047096      1.80809407401644      0.61312362313970
  H   2.96032133756790     -0.92204578169827      0.49652150516307
