22
Coordinates from ORCA-job 9031optt
  Br  1.95571932912470     -2.11841763001342      1.24122571393372
  C   3.12778184491984     -0.77539519446237      0.56753393598264
  C   2.58769042998464      0.46692492821621      0.27892979585934
  C   1.26353768027054      0.92910228443532      0.43948710906934
  N   0.84623606221192      1.82186241874606     -0.47875404785849
  N   0.91545790435236      3.07950906829450      0.16883586146671
  C   0.15827095543176      4.18104175678554     -0.10963786885457
  C   0.86642213371914      5.34259271764815     -0.05675898051455
  C   2.26495697409874      4.99977478562494      0.16714449954353
  O   3.23035486057441      5.71429880335676      0.33350680982661
  C   2.26607449697319      3.47755931488503      0.18391379659239
  N   3.32994798418639      2.80285073588736     -0.02357829098773
  N   3.51029866516514      1.47048768263667     -0.12662073674685
  C   4.85937679410546      1.13104191682443     -0.44620772479687
  N   5.72487922860366      1.94382643372056     -0.91154077599733
  C   5.20964308322235     -0.24019869244651     -0.13236169436980
  N   4.39554355990909     -1.12142488682463      0.37833296241329
  H   0.78619472078312      0.83002112062999      1.41884951511203
  H   -0.88747230096762      4.02860967804548     -0.33601893739253
  H   0.47627128931716      6.34307848590452     -0.13621155529262
  H   5.31623715048487      2.87144396770623     -1.00701339277397
  H   6.24057715352911     -0.51758969560086     -0.31005599421429
