21
Coordinates from ORCA-job 9035opt
  Br  0.93660375556390     -0.05558536533643      0.24431527331224
  C   2.79331109470851      0.06399700306223     -0.01351737576259
  C   3.55212784721144     -1.09600912340107     -0.18610627462836
  C   3.54418297249209     -2.53539279071909     -0.02235137225044
  N   4.74931003506473     -3.07012142063602     -0.07141866013908
  N   5.59324529380256     -2.01626178208459     -0.34253580781276
  C   6.93639447474753     -1.68796277270996     -0.03433067798840
  N   7.90088520613186     -2.45215242249293      0.21657288596280
  C   6.97965504202433     -0.10479285646446     -0.00503998702637
  O   8.00684988477141      0.52732131498574      0.20289894440428
  C   5.62904177383415      0.28747466405276     -0.22906853019334
  N   4.86231829603026      1.47463242741583     -0.10793420945007
  C   5.56544419721433      2.65407758775908     -0.10051681835319
  O   5.11571470476827      3.77542899695453      0.02060805146909
  C   3.39772136556423      1.39870958673578      0.00800208051365
  N   2.67193401068885      2.44067692468910      0.13163524656924
  C   4.89695895546411     -0.86017174917217     -0.36210103717325
  H   2.69078297439625     -3.17444268428378      0.14488063734817
  H   7.59851654786509     -3.42631684972725      0.16322919717953
  H   6.64183592683841      2.46205760506272     -0.21288421390180
  H   3.23716564081742      3.28183370630995      0.15966264792065
