18
Coordinates from ORCA-job 9037optt
  Br  0.93044124638411      0.07397503533915     -0.05885504645209
  C   2.81315256129219      0.01891611094800     -0.05940996653138
  C   3.55063309790791     -1.19807835491499     -0.05974967499380
  C   3.41466559596506     -2.63518817863026     -0.05988343354703
  N   4.57631985738902     -3.26312450935035     -0.06034549706303
  N   5.50416389121549     -2.26606033887698     -0.06026344652667
  C   6.91708540019592     -2.07717461845762     -0.06032157236605
  O   7.75427550910086     -2.92526390858355     -0.06057814337701
  C   7.10598773231673     -0.50320377542637     -0.06003199559034
  O   8.22466563239662     -0.00709464996924     -0.06001069813518
  C   5.77999449292673      0.04736469992287     -0.05982734690587
  C   5.00647520277806      1.23512560167250     -0.05949748432868
  C   3.58208417770881      1.17031647026224     -0.05930409693316
  O   3.13873686215503      2.43025647344116     -0.05895899244490
  N   4.29592786627626      3.27776163940022     -0.05888940378655
  N   5.31948254854814      2.56295372228561     -0.05930304231462
  C   4.91510374857077     -1.05772103414237     -0.05994268830423
  H   2.50480457687223     -3.21576038492000     -0.05982747039939
