20
Coordinates from ORCA-job 9040optt
  Br  1.55286807100271     -1.80615698415784     -0.63242327787615
  C   3.04788229338626     -0.70640015419893     -0.21148357785908
  C   2.89639863891543      0.62573929492668     -0.16858205720034
  C   1.73068263457648      1.45370134840899     -0.48073982535102
  N   1.16454656402735      2.05448153761962      0.50506846014270
  N   1.24676925124794      3.40113588028321      0.19236864920870
  N   0.33241816425271      4.33995802082721      0.35008068057350
  C   1.01887348901999      5.47272571785441      0.18402714738389
  C   2.38524414690956      5.23934094597616     -0.03086160158692
  C   2.51849281818014      3.86319165634208     -0.00413615185381
  C   3.81769377876600      3.06359268569495      0.01481128927452
  O   4.81398520953664      3.77400845737992     -0.00754436791889
  C   3.98352172433506      1.57083243853036      0.07542777722746
  N   5.25589752781323      1.18534764040675      0.24024575848313
  C   5.71548277361464     -0.04676075507019      0.29251431880633
  O   6.84545638708374     -0.44232520494293      0.46145206292332
  S   4.53004538176846     -1.52374542356089      0.08807800343247
  H   1.73213217294625      1.92351051070225     -1.46782235113086
  H   0.49617145442043      6.41489068248502      0.23440856864180
  H   3.18543751819695      5.94693170449314     -0.15388950532074
