19
Coordinates from ORCA-job 9043optt
  Br  1.03920748068047      0.17553003029510      0.10825561236380
  C   2.90716557805494     -0.08050011337281      0.03577000852088
  C   3.47601357051744     -1.32655009956705     -0.11367561427332
  C   4.90142813660806     -1.44430112437818     -0.14600921666186
  N   5.32360857875381     -2.68318177547482     -0.28107261626588
  N   4.17943370769872     -3.41957714753983     -0.44761509083127
  N   4.16209013313684     -4.71677797188995     -0.07955173992878
  C   2.99301875288106     -5.23153790944697     -0.15681761748040
  O   1.89654921305243     -4.59797427997167     -0.60634034317598
  N   1.82494091935667     -3.18743119883208     -0.24859182405405
  C   3.00783991833622     -2.66470299212161     -0.28684907588864
  C   2.87345548267282     -6.65384078416045      0.23143526353347
  O   1.84357950288485     -7.27103740905823      0.25806744503232
  C   5.76107154888946     -0.23966771358385     -0.03414492192300
  O   6.97821644681369     -0.30723681225390     -0.06402413119426
  N   5.09223386904912      0.96353427516125      0.10893300651311
  C   3.77806736427332      1.01679186562559      0.13907968810332
  H   3.84984305237045     -7.10133293064494      0.48371685935700
  H   3.33323674396958      2.00279409121440      0.25443430825353
