25
Coordinates from ORCA-job 9046optt
  Br  4.09546722937511      3.33951134554189      2.10698056161584
  C   4.78493533598941      2.31080369596255      0.67735160662543
  C   3.98087218492658      2.00039390011435     -0.39651902435440
  C   4.51069001515881      0.98759200173897     -1.20819807188136
  N   5.68928090582678      0.41945609656228     -1.01141271787393
  N   6.53948074395933      0.95639387661777     -0.14214852424903
  C   6.15658257551567      1.94609833439417      0.65811801961867
  C   7.14672839778723      2.90444261418898      1.25306651154912
  C   7.02418887413151      4.17790031530318      0.60785489637948
  C   6.58185391575964      5.43649206465568      1.18877327661593
  C   5.66593204851817      6.01531202498107      0.34335496547156
  C   5.55283497689083      5.19857128216637     -0.84675591579070
  C   6.53894403686786      4.18959421099191     -0.71206500367929
  C   4.42206000280348      4.51098946089656     -1.39299096242342
  C   3.15417701847103      4.28168280127483     -0.92080809746007
  C   2.77387362571884      2.85118083623035     -0.77221335804084
  N   1.62127708548356      2.30732788356517     -0.78433346534076
  H   3.93380761018146      0.61175201434967     -2.04592944719157
  H   7.46812788648790      2.79916044524416      2.28157103374058
  H   6.80622092139791      5.76680746344754      2.19422068496717
  H   5.07158543624895      6.89061681236325      0.56441318523499
  H   6.62932299357870      3.34534816358721     -1.38106490753897
  H   4.74713606135465      3.75821251118145     -2.10811247457763
  H   2.69119374309993      4.95439677792797     -0.20706537092390
  H   0.93242637446655      3.00996306671264     -1.05808740049288
