22
Coordinates from ORCA-job 9047optt
  Br  3.77666062922637      3.58809780864882     -2.04625244472877
  C   4.68146675209770      2.38521828761677     -0.89519440325932
  C   4.09152491120838      1.97311742994091      0.27698121767563
  C   4.73674864477069      0.88223369964926      0.87355973871790
  N   5.84292055928804      0.33096752792353      0.40112512279450
  N   6.53146019892577      0.95993188609769     -0.54527890664983
  C   6.02468433342446      2.02182696195434     -1.15839715015727
  C   6.92780242409281      3.06084221128268     -1.77083660596855
  C   6.99827918950672      4.18289511613085     -0.87173915692103
  C   6.38289442989478      5.49336117658483     -1.09562928320367
  N   5.63884066088271      5.89556655447547     -0.09621006015370
  C   5.75933320342385      4.88159591202931      0.86549726143296
  C   6.75455447514815      3.95451648435411      0.48307464033634
  N   4.76230643865096      4.19420821537752      1.44089601022244
  C   3.48057176930848      4.17548019553420      1.20151284637357
  C   2.95683033079733      2.81894905107679      0.91142552199346
  O   1.80737217461674      2.44060730851770      0.91360720857391
  H   4.32315690317335      0.42317633725993      1.76411923614801
  H   6.99879549920240      3.17575152340743     -2.84434437871829
  H   6.41581258104200      6.05194273201144     -2.02479120258663
  H   6.92437632747805      3.03201353903960      1.01514241675970
  H   2.91660756384018      5.00070004108679      0.76273237131864
