22
Coordinates from ORCA-job 9049optt
  Br  1.18628057966624     -0.34491143811866     -0.48510983374082
  C   3.03993508064041     -0.09073447239664     -0.22924395117885
  C   3.61409817461619      1.18610730517676     -0.08268996743673
  C   5.04257913869572      1.20183203277479      0.10748911482516
  N   5.72850885321845      0.01518602434444      0.13518481104269
  N   5.17101892942682     -1.20642641432296     -0.00156851613974
  C   3.86518563343539     -1.21607260254539     -0.17915431023682
  C   5.48447350824625      2.49912075564854      0.24177984505172
  C   4.34296064434215      3.34433515223864      0.14735171148104
  C   4.35359432493313      4.77069838291323      0.23172631096238
  O   3.38007430555030      5.50705553769655      0.17250097942419
  C   5.74286795870567      5.45526070181057      0.35476342621070
  C   6.46389354570446      5.16626839815008      1.58882141939468
  N   7.05491244164109      4.95167279229779      2.54856951224895
  C   3.18769971132533      2.51945315112144     -0.05682942164380
  C   1.85392487450377      2.97178126564412     -0.22650198338735
  N   0.76325177081645      3.31159369814817     -0.37176093686180
  H   6.72008452772221      0.00357286726963      0.29493619134539
  H   3.43242229672396     -2.20225284617878     -0.29039193664272
  H   6.50165568807894      2.80905532325470      0.42843931218911
  H   5.56628249228015      6.52793954760591      0.29664464259622
  H   6.37729551972687      5.15546483746704     -0.48195641950361
