25
Coordinates from ORCA-job 9056optt
  Br  1.26361812662607      1.03563520981393      1.59293135306802
  C   2.87001467883274      1.41102217926369      0.64817962954017
  C   2.92412129362560      1.32043602177940     -0.77527746436905
  C   4.29171274200443      1.28764686290980     -1.26975132916612
  N   5.28088155728965      1.82920147462567     -0.65422858563008
  N   4.97418693222755      2.45655010560626      0.52478397424502
  C   3.74482799283907      2.44219219494951      1.15159294672540
  C   3.37468798702211      3.44638470132774      2.00594832571061
  N   3.95381589876060      4.74762706479232      1.82976803218952
  C   3.45585116745769      5.61100495309865      0.85667531657814
  N   3.62021384850959      6.87556599679533      0.79262414129989
  N   2.80248846090629      4.88846723064662     -0.15659466812064
  C   1.76023905292800      5.27174260642104     -0.75455704413293
  C   1.19940176570060      4.27536740894269     -1.79155611521670
  O   1.01381883640051      4.64039662902760     -2.94110896361816
  C   1.16604162142919      2.96138227805723     -1.18615128373499
  C   2.02879762070263      1.99026989748748     -1.64950726924221
  H   4.51508673930615      0.87597534730904     -2.25045803258673
  H   5.57410608104938      3.23956562837905      0.72308405125037
  H   2.40490071049192      3.39262174788124      2.47967574323445
  H   4.33953546079063      5.22005765277037      2.63356506839385
  H   4.16073749228740      7.20753073484870      1.59042054130350
  H   1.28086819321623      6.24171245307026     -0.57972050540371
  H   1.06792259364215      3.01431159672504     -0.11237102261021
  H   2.28412314595374      1.98333202347128     -2.70696683970739
