23
Coordinates from ORCA-job 9058opt
  Br  3.45066935205313     -0.98582134397550      2.55468627539954
  C   3.72273659925169      0.06763938599017      0.98843104366244
  C   4.49051734839122      1.26864165669311      0.99655288911634
  C   4.85628949264527      1.75994208984958     -0.29862927927715
  N   4.35851332200917      1.07855534308817     -1.37516699686129
  N   3.54344465297739     -0.00921312278974     -1.38101372474762
  C   3.26854087824707     -0.49618796914502     -0.19357904120288
  C   5.56632969507084      2.93773485237331     -0.58806398732292
  N   5.45958060693044      3.57216737067545     -1.87004861161960
  C   5.74960419356883      3.13921583108591     -3.10226628235057
  O   5.95337937778394      1.98594188723159     -3.45792561350009
  C   6.20600132182747      3.83653136652257      0.33396561034900
  O   6.41909189669638      5.01306943817761      0.03050143134863
  N   6.72981188256958      3.36989849508010      1.54812450201847
  C   6.11239979439842      2.60494352973454      2.34378244459217
  C   4.76395121319108      2.00005790274975      2.21715032718896
  N   4.04303305533894      2.05322516234371      3.28350890145767
  H   4.76407472847778      1.27491200574035     -2.28550222218455
  H   2.66419749216234     -1.39449099290933     -0.18266051797138
  H   5.48885924543466      4.57968624918198     -1.75019928373676
  H   5.75448033494508      3.96722960192886     -3.82881041220961
  H   6.61613887917589      2.33993354930931      3.27491698176236
  H   3.14535463685293      1.59638771106331      3.13624556608880
