24
Coordinates from ORCA-job 9062optt
  Br  1.11547329201361      0.24638241250130      0.66216694040877
  C   2.92413077640633      0.08662436892235      0.15041462612069
  C   3.57423464447486     -1.15901170592920      0.03002618110983
  C   4.97981368665860     -1.14933413390477     -0.04038832877427
  N   5.75083099791715     -0.10279041776637     -0.11627702249439
  N   5.04344044562483      1.07992077238143     -0.27259623275175
  C   3.68713254377002      1.28933072410430      0.05820496767532
  N   3.20377873339831      2.48062750365883      0.21239284165797
  C   5.56309240414131     -2.52830214464694      0.11029144007706
  C   4.99691855932491     -3.10365171577166      1.41461578764754
  O   3.58910459607243     -3.24738118286511      1.29048394712138
  C   3.06811082594548     -2.57921327406380      0.12997231692032
  C   1.56870807553508     -2.79337087796636      0.05596064861441
  O   0.94881941548508     -3.46977006259267      0.82461850813934
  C   3.67565949553915     -3.29741429926392     -1.10058506298355
  O   3.05669184021902     -3.70909690276000     -2.05750549849935
  N   5.03496886565493     -3.39360549017343     -0.95042620150657
  H   5.63131300724221      1.88459046425807     -0.13157139012658
  H   3.93857517804627      3.17566259165390      0.09491572216001
  H   6.65023165839888     -2.51933193358759      0.09673279156773
  H   5.23504265811252     -2.43295843086886      2.24481703820675
  H   5.41086434023367     -4.09594800967111      1.60983766130867
  H   1.10274277966227     -2.32351055450866     -0.82295179463944
  H   5.55932118012299     -3.49944770113970     -1.80614988695987
