24
Coordinates from ORCA-job 9066optt
  Br  2.24788690912424      0.90516053783193      1.42224513003877
  C   3.66639645889798      0.24798895196174      0.34545454638882
  C   4.73616591062531      1.11138694712004     -0.06171453917087
  C   5.92008984962245      0.48434800505714     -0.48088680708034
  N   5.92261838548745     -0.89474971210923     -0.44699066049961
  N   4.84854329809004     -1.71491259337086     -0.32197992593275
  C   3.75645032811849     -1.12403136714776      0.12593073534163
  N   2.69877611874422     -2.01799368443453      0.39215686789073
  C   1.47621565134688     -1.99651612553483     -0.25418072749999
  N   0.95978091589667     -1.11147881832848     -0.99444222332408
  N   7.05796374852429      0.96496647925734     -0.98855519408966
  C   7.39055522425540      2.26449200708900     -1.01119849035909
  N   6.93022633121982      3.32803311769559     -0.43270214941773
  C   5.80276851288046      3.33760133199076      0.36902633704726
  N   5.70371688960371      3.99858086708582      1.45219314203892
  C   4.59852799017841      2.57136147021952     -0.11596623697029
  N   3.56726716350784      3.22173389957109     -0.48515770716529
  H   6.73662241263167     -1.31970584687190     -0.86092039035148
  H   3.03277456677282     -2.94086196538829      0.62498443932301
  H   0.90023933647598     -2.89751223790387     -0.04010154699256
  H   1.58452216583993     -0.31467689043671     -1.11937798882272
  H   8.27646180025862      2.44408721258038     -1.62162866687736
  H   6.60213239157610      4.45526694165020      1.62023948494384
  H   2.83629764032114      2.57843147241589     -0.79142742845914
