27
Coordinates from ORCA-job 9076optt
  Br  0.78284614944353     -0.82834103274389     -1.07433101014928
  C   3.09512999095328      0.08248353730303     -0.82165028388451
  C   3.45813909500706      0.95544969886015      0.18545546966345
  C   4.77305877194530      0.87860787659508      0.72387327508230
  N   4.80061634023616      1.83833051160835      1.68779449285028
  N   3.60394839541579      2.50129465932484      1.82319548140077
  C   2.81025557602999      1.98179311343791      0.92776759674409
  C   1.41363494878172      2.47335005151760      0.75832759438356
  N   0.76519776908993      2.80623517206867      2.02870133406873
  C   -0.24000076468022      3.82415416152306      1.71073754938982
  C   0.36669172301838      4.70350225331344      0.61544488190877
  C   1.33942015088295      3.75913377067434     -0.08528632799465
  O   1.93740380936564      3.99612709286358     -1.09478773960939
  C   5.71623848219736     -0.02687143259483      0.28317119229631
  C   5.34377071441879     -0.93253869054030     -0.75528001244812
  N   6.02707348883876     -1.86629758188022     -1.33784438736213
  N   4.01152869080881     -0.78605037417981     -1.22603191241395
  H   5.54361076106085      2.04956788183461      2.32628737992646
  H   0.83912258605586      1.70224969249306      0.22698238494883
  H   1.47773689192852      3.19050750100678      2.64256005748139
  H   -0.51827873357300      4.37381717284366      2.60854026192051
  H   -1.13469779925681      3.31939373789840      1.33676001862352
  H   0.95782394249040      5.51892594887804      1.04057842213128
  H   -0.33564496096605      5.12751102200638     -0.10101655078366
  H   6.71122697645177     -0.08941050740040      0.70054749091241
  H   6.96157441344162     -1.89801550626041     -0.94208534063471
  H   3.75957259061344     -1.46190973045121     -1.93741131845208
