21
Coordinates from ORCA-job 9079optt
  Br  1.46600789384163      1.21180510183161      1.02242202328864
  C   3.16552610511402      0.62111118832428      0.40331166265453
  C   3.60376691794756     -0.67229835305687      0.40274263228867
  C   3.03625921334900     -1.98126713259367      0.76285630136530
  N   4.16635727372424     -2.71862685169690      1.08428838523172
  N   5.34700291257329     -2.12367444276090      0.67216830936231
  C   5.04657580918234     -0.92886490772781      0.27779980833036
  C   5.99106504714420      0.06307733023837     -0.22094042517294
  C   7.32523615377553     -0.34767374679620     -0.55263189249481
  O   8.21630877261555      0.37597586262418     -0.99799250003829
  N   5.62384123483789      1.34481300155207     -0.41560393564462
  S   4.18219223622851      1.92297898544851      0.00772478693994
  N   1.88778098678877     -2.55046840021597      0.77380683564327
  C   0.73295526861176     -1.87774028267835      0.23840658252197
  C   -0.20266599312462     -2.84359692001668     -0.35677014666685
  C   -0.98477284130266     -3.60861325170591     -0.84719692932364
  H   4.12440183891346     -3.72256847933672      1.02648527822060
  H   7.51116366992860     -1.42010714363163     -0.37739756180301
  H   0.99257649772891     -1.13898017554241     -0.53077191768272
  H   0.18450931183907     -1.33326021342849      1.01474721857958
  H   -1.66908830971712     -4.29702116883047     -1.27945451559999
