23
Coordinates from ORCA-job 9081optt
  Br  1.10701884453268     -0.49077585285781     -0.15682804360153
  C   2.98062301386082     -0.32420120447260      0.07699117740434
  C   3.61804907980188      0.91884994027470      0.03816117805364
  C   5.03635616682785      0.99696228525776      0.08234138872539
  N   5.30992301422003      2.33014879546879      0.08160600127498
  N   4.21386419503783      3.12247285781022      0.03216867157230
  C   3.19522743066899      2.27659133818663      0.00740724243416
  C   1.82622086334625      2.84445367600205     -0.09668855532698
  N   1.01403881552996      2.66046852930404      1.11560217384190
  N   -0.30054017974479      2.69991479139271      1.07820752856239
  C   -0.60419411201260      2.52140619489297      2.35150177681722
  N   0.48616575233895      2.38407465744842      3.12116479362672
  N   1.50493772816996      2.47733366262339      2.31015650048296
  C   5.95580527817518     -0.05196996742426      0.11547155831004
  C   5.57787071483215     -1.41325727012358      0.08426854693366
  N   6.30824292814049     -2.48019149178414      0.08988628413633
  S   3.82876494041230     -1.84336958657771      0.00839105056234
  H   6.21935978776860      2.75210187094811      0.10071282918721
  H   1.24414898680409      2.38224014617259     -0.89126511613958
  H   1.90875932621412      3.91578184919083     -0.27806557639662
  H   -1.61396844854165      2.48420513093585      2.72146344649124
  H   7.01816137227069      0.16205873604041      0.15244285206143
  H   7.29016450134614     -2.20929908870940      0.11790229098646
