20
Coordinates from ORCA-job 9082optt
  Br  1.12856813071252     -0.58046895425748     -0.37952312088138
  C   2.96797886970008     -0.30704163980621     -0.11594512721670
  C   3.54816762346254      0.95477897356841      0.02902256218786
  C   3.14931668320034      2.32976612773826      0.13359408585777
  N   4.22070684595545      3.16345263174794      0.16383814135969
  N   5.28182543946932      2.36071563105261      0.11319239897343
  C   4.97129503392059      1.04245516257697      0.04338826018357
  C   5.80602830141259     -0.05970656325714     -0.01853501794504
  N   5.15439685332832     -1.29063857985736     -0.08349547121623
  C   3.77991706194260     -1.49900744706464     -0.17395180988286
  O   3.37299669450512     -2.65221049099823     -0.29458544492796
  C   7.20161833926315      0.02390216009382     -0.00645622453270
  C   8.40709021033909      0.13634434379971      0.00471753893269
  C   1.85981414147324      2.95069311356854      0.30961637573601
  O   0.79143273101634      2.43886211036825      0.55597062685296
  C   1.88708106994568      4.44661184632394      0.20683590254435
  N   1.79279335290049      5.58766326953219      0.14144576162171
  H   6.20870368886605      2.74981623590452      0.13397596788311
  H   5.70179687103247     -2.13326941562986     -0.15424163479721
  H   9.46547205755396      0.22628148459574      0.01313622926694
