23
Coordinates from ORCA-job 9089optt
  Br  1.16692249646233      0.02839359764027      1.08037417142025
  C   2.97756950306769     -0.04732213909236     -0.25434396435306
  C   3.70819015398684     -1.24228040525018     -0.25678864871009
  C   3.43079271682799     -2.62730850028659     -0.31865710865486
  N   4.52147415006746     -3.34338596619405     -0.31463402511548
  N   5.56891309134352     -2.44823925215375     -0.24887597668373
  C   5.11223993225829     -1.14954037718887     -0.19929407001212
  N   5.85586441813861     -0.05863441454500     -0.10672489132643
  C   5.17498143125755      1.11348258529355     -0.08171029162745
  O   5.67002101516589      2.22493680042200     -0.00200208585871
  N   3.74544071052337      1.04943928332942     -0.18011540687651
  C   6.87604715385144     -2.94737274495524     -0.20916588738317
  C   7.99822408764608     -2.10732485269700     -0.21879614306589
  N   9.24206472222834     -2.57701788222536     -0.18563562546087
  C   9.43115935112488     -3.89137492958362     -0.14078804352699
  C   8.38319219197609     -4.79913504777537     -0.12753746174064
  C   7.08472145664198     -4.32424256330054     -0.16196182833920
  H   2.46666091238020     -3.11110018964059     -0.35549846658180
  H   3.30830358878584      1.96020383443154     -0.16198111734944
  H   7.86632541596247     -1.03555357364652     -0.24984212531548
  H   10.46120005904074     -4.23123664882780     -0.11557022860461
  H   8.57945691904939     -5.86296981892857     -0.08999244376240
  H   6.23123452221283     -4.98541679482534     -0.15445833107132
