24
Coordinates from ORCA-job 9092optt
  Br  1.93665282724262     -0.37840760328577      1.84042508694885
  C   3.20706159872725     -0.21805269987589      0.33369741276674
  C   3.76123464110904      1.04248745715432      0.04690049359818
  C   3.18847310162670      2.36193158904956      0.00818342788251
  N   4.28192581215569      3.17201958588627     -0.15440523613110
  N   5.48052951261181      2.52102081170267     -0.26908597943938
  C   5.14772491324483      1.26657342890948     -0.14488720708577
  S   6.35801750392598      0.00154454818062     -0.18774835767588
  C   5.36617285468999     -1.45452128985249      0.00266839526816
  N   5.88494953836617     -2.62045563679543     -0.08671550667752
  N   4.02903180854649     -1.33747009392390      0.25719242253153
  N   1.99179982532813      2.88540462941236      0.12160817313006
  C   0.88587687154725      2.12187971204202     -0.14765860203665
  C   0.59347090002793      1.12190002727277     -1.06263743193027
  C   -0.77753978183660      0.78160482710996     -0.90305316170867
  C   -1.29647895415805      1.57480609235241      0.08631816618750
  N   -0.27726718861630      2.38820688556651      0.52615006177863
  H   4.22995257415277      4.16446894729596     -0.29072537898648
  H   6.87750624799925     -2.56629109718804     -0.29106819942936
  H   3.58440649663882     -2.23669734777499      0.38459033113284
  H   1.30254037388244      0.68185921902030     -1.74373158692055
  H   -1.32417649688632      0.03229395499597     -1.45375931014426
  H   -2.28576926432342      1.63371449482600      0.50602629118391
  H   -0.31509571600253      3.05717955791930      1.27371569575697
