26
Coordinates from ORCA-job 9093optt
  Br  1.07407966814151      0.37317433538895      0.43862300039292
  C   2.93803261692353      0.07832206821018      0.21244311864064
  C   3.48548233905641     -1.22576348553179      0.31355026296475
  C   3.04002085207152     -2.55413309127528     -0.07533705849977
  N   1.88893256793548     -3.11470251343978     -0.17075622519110
  N   4.20721905383851     -3.29629064573553     -0.46611051138853
  C   5.42559915201549     -2.62259880835315     -0.05535151012284
  C   6.17626847568720     -3.35039015495497      1.07872725620994
  O   7.55574136815463     -3.06896083543615      0.90241778075226
  C   7.76172920130169     -3.04833209029821     -0.50114570191586
  C   6.58849937499848     -2.26384810687493     -1.05478408494756
  N   6.79888880101964     -0.78056337680069     -0.95257828135501
  C   5.64772350572065     -0.28759217232649     -0.27469321295069
  N   5.11757728895660      0.97253410212254     -0.36538842158516
  C   3.72062347735419      1.22263147016237     -0.10708382908021
  O   3.34573927158015      2.39021497320605     -0.23452346741108
  C   4.89288712142329     -1.26736363512852      0.22682554858760
  H   1.17629146769081     -2.45543779071523      0.13014292562620
  H   4.12849247430282     -4.28965871514841     -0.29843540450059
  H   6.01052708632607     -4.43474138206520      0.99194988315840
  H   5.87057542620839     -3.01316874884465      2.06721806991078
  H   7.75131929789066     -4.07174622253587     -0.90093404042249
  H   8.73803321697859     -2.60335774116224     -0.69746680013487
  H   6.33512440342515     -2.52160174041903     -2.08278342443368
  H   7.66089921768364     -0.58188539387600     -0.45317300776398
  H   5.59169327331484      1.72425970183204     -0.83735286454006
