22
Coordinates from ORCA-job 9097optt
  Br  1.36644736192496     -0.49253164054003      0.05082193940352
  C   3.01555348484283      0.41900249610051      0.26482040331847
  C   3.28984237799734      1.61061182289932     -0.28324873649298
  C   2.58161022183201      2.51251867463430     -1.22104841201783
  N   1.40519582723590      2.53188194769898     -1.72544817540803
  N   3.51498758461816      3.50293431315879     -1.48269480993550
  C   4.69833066905100      3.32123331365680     -0.76655175228639
  C   4.60047371906276      2.20463510224278     -0.02638485987137
  C   5.61052886761842      1.46234826147779      0.67172366467775
  N   6.88572444193154      1.97240792833862      0.68216107609195
  C   7.28539481715404      3.35899204863105      0.79597838577845
  O   8.25956146343679      3.55126870213609      1.54508122337864
  C   6.69278712724626      4.43685228539854      0.05417485985713
  O   7.01989815630532      5.61052038201199      0.12634073843229
  O   5.67675629781625      4.18379899777514     -0.95877852451406
  C   5.26030308178815      0.25905183579521      1.17910799679019
  N   3.95028557775200     -0.27637299155986      0.98145307000016
  H   0.87410655920313      1.72782688707474     -1.41185220497344
  H   3.29314766794169      4.33761090306800     -1.99710780767653
  H   7.55036866318116      1.44368861761370      1.23038782779043
  H   5.95511898079947     -0.40806738626436      1.66649715125250
  H   3.59357705126068     -0.88821250134814      1.69856694640464
