21
Coordinates from ORCA-job 9099optt
  Br  2.45450813704790      0.68807561194741     -1.12341364780668
  C   4.16178826526475     -0.04598294415974     -0.70772751863099
  C   4.33018972324432     -1.38778548523800     -0.39510894710941
  C   3.25440888371475     -2.32899768955879     -0.16345948681612
  N   3.41046919112774     -3.48095110430955      0.39152117201308
  N   4.65365398784085     -3.84092693578159      0.71417044029653
  C   5.80613383367229     -3.15785759427047      0.33702457750060
  C   5.63243527676101     -1.82833380449534     -0.11402409245881
  N   6.64748814288754     -0.83881137717137     -0.26002422706193
  N   6.21451281668247      0.52493395422480      0.10957146513175
  N   5.06050371325242      0.83905175186171     -0.21338955043633
  C   8.05250274393958     -0.86742148570070     -0.26563077557071
  O   8.69761486753948      0.15134375578982     -0.25935025198615
  C   8.79708748188840     -2.24525215016433     -0.27842890601491
  O   9.90215545343451     -2.30912740064441      0.18948056265719
  C   7.88086849153514     -3.27747077930090     -0.75840665854803
  C   7.07192207130935     -3.75357457618410      0.30573559825208
  H   2.23866282317032     -2.05649195031891     -0.41322804971863
  H   4.74686939848682     -4.81652097584487      0.94097259511153
  H   7.29360840999853     -2.91857038209521     -1.60217801669278
  H   7.44161628720173     -4.37532843858540      1.11489371788871
