26
Coordinates from ORCA-job 9103optt
  Br  1.00402237408363     -0.37135377238644     -0.41935571970467
  C   2.85041401042769     -0.02463615771618     -0.23221069759821
  C   3.39300153328434      1.28078828360778     -0.12902930944336
  C   2.84444465339073      2.58927827141017      0.17027823552980
  N   1.65452391892661      3.07247567841770      0.18549161430332
  N   3.93806274395881      3.42666186780849      0.53895968015028
  C   5.19328716822588      2.82423668086680      0.12238927137476
  C   6.35289807184727      2.83100391919346      1.11274877151448
  N   7.40105589435634      1.98462790263022      0.53301671697159
  C   7.08263928112159      0.55385665036089      0.45307944535825
  C   5.66941368352127      0.37156527421986      0.00810631128833
  N   5.10127533041494     -0.91102210227915     -0.06994282006817
  C   5.65048608586279     -2.15594315257694     -0.07620649321592
  N   4.72845762366687     -3.06692933496586     -0.20863938020095
  N   3.51698197490827     -2.43581804550738     -0.30060361261357
  C   3.73496407212882     -1.12922847823732     -0.21735388519563
  C   4.79528090342751      1.39591477087373     -0.06893052000048
  H   0.99325157229621      2.35191560268628     -0.08608319981185
  H   3.78295642917088      4.39121204301599      0.28288122807427
  H   5.55690842202193      3.24812519697696     -0.82257909400038
  H   5.98112417381009      2.47181609255001      2.08287082386869
  H   6.76548716756774      3.83314748322045      1.24745866445363
  H   8.26900133127675      2.10570596469967      1.03521505660951
  H   7.20457323292498      0.04286740757038      1.42705050301811
  H   7.79797881902992      0.08903830120002     -0.23621837298674
  H   6.70950952834809     -2.33430634763959      0.01560678232490
