19
Coordinates from ORCA-job 9110optt
  Br  1.17192794162285     -0.21025818992497     -0.85941141401998
  C   2.96218941043826     -0.08729795013293     -0.22846762026532
  C   3.58988768135293      1.16455261408522      0.01378848425709
  C   2.87065316572149      2.46144764680956      0.19797812944994
  N   1.68495586330145      2.58016486796101      0.66504485488955
  N   3.56144947822242      3.62943105635012     -0.12332814869780
  C   4.85126283319631      3.59753450991718     -0.06989226155520
  C   5.63169761990998      4.84570936102360     -0.31473000061837
  O   5.18968950008855      5.89480311859304     -0.68046037478685
  O   6.96470634964879      4.74089313027022     -0.07556971549774
  N   7.66309191213907      3.50485502828543      0.25891270397349
  N   6.98552347087116      2.49022178583773      0.34587109812816
  C   5.62917984652938      2.44650229519422      0.19418271195110
  C   4.97271953897842      1.20140767379288      0.16582408083829
  S   5.95242515617253     -0.24083007009114      0.25485931661218
  N   4.89560597432558     -1.51041941479621      0.12743923551673
  C   3.62867515896964     -1.31186431605804     -0.13718971128849
  H   1.29881828932183      1.67159886443657      0.90092608201628
  H   3.04554080918930     -2.21645201155349     -0.28777745090307
