23
Coordinates from ORCA-job 9111optt
  Br  0.95110373043153     -0.03969186988385      0.31894115672900
  C   2.83895142419473     -0.03815028353978      0.20359296236681
  C   3.57166465462096     -1.24209534137893      0.12323625036579
  C   3.30429983032231     -2.64445548157619     -0.08796765000439
  N   2.24822861228717     -3.37202437689165     -0.17841667666294
  N   4.58625369583205     -3.26921417771395     -0.21964008616201
  C   5.62173652691716     -2.39155236288607     -0.07336896532530
  N   6.88420947850721     -2.60565047923233     -0.09487230244212
  C   7.66404712086609     -1.43479907472808      0.28313228402142
  C   7.13378674692266     -0.01464383344330     -0.11089761998085
  C   7.49154763996961      0.33956806010257     -1.49561217212781
  N   7.80699462323524      0.61926107978814     -2.56229843315497
  C   5.64462971197061      0.05543144489403      0.09830842857798
  N   4.90732981866730      1.21046522898030      0.12227614648321
  C   3.47510502871278      1.23560624264786      0.21561594398838
  O   2.95086923567222      2.34536350346466      0.28855599487706
  C   4.97954426604656     -1.10472775532197      0.11816975672497
  H   1.42835060674939     -2.78448882246635     -0.05639597478894
  H   4.67608641906295     -4.26575790066689     -0.31309091389423
  H   8.67156203074504     -1.53860202117880     -0.11970998388932
  H   7.74899865266327     -1.41493288578561      1.37704055769294
  H   7.65645747188168      0.70585538231198      0.52684026195421
  H   5.32924267372142      2.12523572450423      0.10856103465111
