20
Coordinates from ORCA-job 9113opt
  Br  4.72327250762485     -0.25128531213194     -1.16031187904276
  C   3.35674912264966      0.29367677165781      0.02400935640300
  C   2.37757412694520      1.22964148743032     -0.30451960238687
  C   2.33475359190053      1.77998620594004     -1.63098061694006
  N   1.62214806027613      2.66372239541083     -2.26322550955747
  N   0.62652493120256      3.35866636180968     -1.72324226544886
  C   0.06760956221210      3.38895852336996     -0.49879945276540
  N   -0.91742220094991      4.22706887810418     -0.28161603552575
  C   -1.28516591225612      4.03138056799220      1.05057940747874
  O   -2.16816144543525      4.63121757496806      1.63431744001480
  C   -0.41784015811020      2.96867772137240      1.63122441373607
  C   0.43069073839861      2.56208215370937      0.66532453838297
  C   1.46692939761425      1.54104893483214      0.77622413394929
  N   1.48920964585894      0.97515544681056      1.94350358024192
  O   2.43537743629919     -0.00032643475506      2.19569790559236
  C   3.41135614381341     -0.35602564731320      1.30337295760914
  O   4.21101481846858     -1.18180371175766      1.67039004346094
  H   3.08194648783531      1.36316845654404     -2.29202572818950
  H   0.20362146800576      4.01238801577223     -2.36687530047222
  H   -0.47618832235368      2.60660161023386      2.64395261345964
