19
Coordinates from ORCA-job 9114optt
  Br  1.07550678039115     -0.18033309069461     -0.02441078474410
  C   2.95915719247176      0.00749838201551     -0.04020991531859
  C   3.74534119128053     -1.14966800546917     -0.04882827049370
  C   3.44833310442591     -2.53188376134439     -0.05126215732005
  N   4.50685243114897     -3.31030165507989     -0.05762427808539
  N   5.58100800978783     -2.43067370103900     -0.05985225219528
  C   6.84120009407742     -2.90761884700413     -0.06248130447371
  N   7.94848402369927     -2.24764112057997     -0.06305907000738
  O   8.93021914138452     -3.27801936475174     -0.06556440915385
  C   8.33484350404764     -4.47137743210285     -0.06596012822649
  O   8.85509926201540     -5.53835442789261     -0.06740885599027
  O   6.98878303428558     -4.25344412856850     -0.06430832595888
  C   5.17310709520668     -1.08571817279755     -0.05541588634257
  N   5.98345813531007     -0.08427070996649     -0.05705218440185
  S   5.29503681813206      1.44109876618972     -0.05248494053623
  C   3.49774815174494      1.31997406876674     -0.04093790554771
  N   2.81134446532551      2.40834531828661     -0.03395691589539
  H   2.46623761715988     -2.97923667712315     -0.04850984608898
  H   3.41623994810484      3.22762455915546     -0.03567256921959
