22
Coordinates from ORCA-job 9115optt
  Br  1.22685972779847     -1.85037426526594     -0.86695970111042
  C   3.01737193617713     -1.19115404420706     -0.74941936153760
  C   3.56452233309518     -1.00266717493162      0.47228883017697
  C   4.92140912870852     -0.45477899951954      0.48331605237820
  N   5.53784235402421      0.13616883965625      1.42921244611306
  N   5.66389147410376     -0.78422805544503     -0.67558699633004
  C   5.12045103667904     -1.45873895493301     -1.72311256813185
  C   3.77945303321983     -1.31658239283066     -1.96354873125879
  N   5.97259779193278     -2.56369897420173     -2.03512054091395
  C   5.28484672098796     -3.60947869916599     -1.73492106748681
  N   5.73211075485564     -4.65845948706704     -0.94675231070845
  C   5.19398627942479     -4.49810985333109      0.21705678830927
  O   4.46982060491507     -3.42032730499954      0.46555714296976
  C   3.76085539600755     -3.14893569768485      1.71732395276269
  O   3.74843688190241     -4.02097847736403      2.56200884607541
  C   3.19675469605029     -1.80523647867325      1.70519708973263
  O   2.57148321847574     -1.35542610558059      2.68034569737718
  H   4.90379457605663      0.24727585606738      2.21781789137956
  H   6.63399022177476     -0.99686376861341     -0.48258596183014
  H   3.32175377909088     -1.81060550830675     -2.80604281635707
  H   4.20453751055549     -3.63849582358489     -1.89913814151551
  H   5.32223054416383     -5.21230463001758      1.02406345990589
