25
Coordinates from ORCA-job 9116optt
  Br  0.96356805082618      0.04350807726868      0.08321834563638
  C   2.88530689745114      0.09530712695959      0.03380638407136
  C   3.60515115592737     -1.11555371603453      0.00972675282437
  C   3.01768184863677     -2.42020005762640     -0.06626148569165
  N   3.65477400996697     -3.54538706858806     -0.07032400589854
  N   5.00942139559157     -3.46383967508261      0.06182916057441
  C   5.71518272484502     -2.27344863407002     -0.02063283311569
  C   5.04294591055706     -1.06498075926648     -0.00836695331201
  C   5.68478876701775      0.20322133711815     -0.01589119771308
  C   7.04761180542109      0.56935494579951     -0.03216013041834
  C   7.06623372901072      1.96142656018049     -0.01970961493123
  O   8.25335073732741      2.69802019427271      0.01255885243678
  C   8.31565581816265      3.80396257686168     -0.73797798133420
  N   9.23215742050782      4.66902636714406     -0.65716035344936
  C   5.77483542778107      2.50293095439342      0.00385760596033
  C   4.89605142510646      1.40162871423389      0.00234204240936
  C   3.48099965985237      1.33036898460305      0.03216269359528
  H   1.94179668953439     -2.51689906548721     -0.14530937479479
  H   5.47344949767094     -4.32979447798287     -0.14380700733194
  H   6.79136085289294     -2.35485026343838     -0.02777942103605
  H   7.91461581719569     -0.07296368708519     -0.04633496800859
  H   7.50276609156204      3.90750551596617     -1.45577357722049
  H   9.88640847577000      4.40241047652125      0.07994100338059
  H   5.51111051324144      3.54913817160544      0.05132141336980
  H   2.87877527814301      2.22910740173366      0.05572464999732
