23
Coordinates from ORCA-job 9118optt
  Br  1.17740189252293     -0.50844164250026      0.71127053095370
  C   3.09205733985099     -0.02403017697227     -0.49809709529147
  C   3.78992955448258      1.11224987446746     -0.26880800360935
  C   3.33200585998473      2.50128980932306     -0.17331732581427
  N   2.17847300061920      3.05576503956173     -0.18723830875442
  N   4.51287851403950      3.22713780842921     -0.02550072471871
  C   5.63669950289293      2.39609089815943      0.07686301348292
  C   5.23673267995258      1.11888424308438     -0.08033714019760
  C   5.86557498976820     -0.16510725755747     -0.05861554698380
  Br  7.72528632820678     -0.30780308593170      0.27295000446818
  C   5.11939003722195     -1.26498941837708     -0.27249024480754
  N   5.60779437000198     -2.55956599089206     -0.31285625048541
  C   4.93104543840587     -3.72171885071997      0.06028308540896
  N   3.72724076487636     -3.89777601220623      0.40240032461108
  C   5.82899995173796     -4.86771791645783      0.01822432856724
  C   6.60419555565213     -5.77976694493229     -0.01006048698975
  O   3.79329831744730     -1.20718185719895     -0.55117067255332
  H   1.46535464358714      2.33436342624685     -0.26482928697167
  H   4.48833630880873      4.20054479018589      0.21749691665381
  H   6.62219467389529      2.79842331306558      0.24303740338479
  H   6.61251644448161     -2.63394050050994     -0.34878910589559
  H   3.18469767532284     -3.03348029283479      0.39783345037734
  H   7.27389615624018     -6.60522925543271     -0.02924886483513
