25
Coordinates from ORCA-job 9119optt
  Br  0.87474032609795      0.03367192512789     -0.04585077107972
  C   2.77626223559240      0.07771425737530      0.04132810792595
  C   3.46703229161700      1.29385567131838      0.05512601276625
  C   3.01705459728971      2.70670527049167      0.09065675289165
  N   1.88044017511894      3.26084803405428      0.24890855139575
  N   4.16759697351326      3.47658230886982     -0.06682751739756
  C   5.37822705093860      2.69575941919749      0.09607725019366
  C   4.85701437611026      1.28826041216763      0.06889724774755
  C   5.58448877839295      0.10652545630189      0.06907984280291
  C   4.90435414153641     -1.11533039865017      0.07402289534600
  C   3.46704744319470     -1.16466843512220      0.06344888347245
  C   2.87729601594550     -2.43626261953962      0.07595755211057
  C   3.68293561115506     -3.58689884360873      0.10036237761265
  C   3.11929423351481     -4.92547433869021      0.12681518073076
  O   1.93103351682230     -5.20455929052579      0.12841195076530
  N   5.03013295085485     -3.54109911408305      0.10554174254088
  C   5.60141333323344     -2.36131806419408      0.09071768521961
  H   1.15344222981880      2.55966629314936      0.32646607146129
  H   4.11242830052926      4.41454102997047      0.29452236521156
  H   5.88262237694457      2.91263530554602      1.04615795533578
  H   6.09318173651574      2.88306306460870     -0.71124832329731
  H   6.66903151788837      0.11338520178453      0.07558921114930
  H   1.80462681300438     -2.56185313855415      0.07235407377220
  H   3.89157759979221     -5.71763541484383      0.15065342743934
  H   6.68872537457848     -2.33611399215162      0.09383147388320
