25
Coordinates from ORCA-job 9121optt
  Br  1.65067456889504      0.66767644791074      0.13992896932323
  C   3.47039815728662      0.10774942656949      0.63133792304154
  C   3.90205026856790     -1.18202370069454      0.31082483069644
  C   3.22471514571464     -2.47458659989695      0.38778565790868
  N   2.06873041880470     -2.82416881141197      0.80297598378980
  N   4.13628085124819     -3.40839314927715     -0.11315229405372
  C   5.46995450995853     -2.84519789033915     -0.24560887077504
  C   5.22350131975932     -1.37041951126983     -0.06991762592639
  C   6.11301560825151     -0.32746200932811     -0.25756563426269
  C   7.51058786513633     -0.58125958420474     -0.75335896196564
  C   8.30623212872995     -1.05026578992930      0.43728684095162
  O   8.58802318870614     -2.21241241038591      0.63925929438419
  C   8.65731594664243     -0.00660286982554      1.39975036542378
  C   8.97831799931966      0.89130778916981      2.12689858659694
  C   5.65413889910128      1.00987764334069      0.04148887245682
  N   6.27756019542111      2.12369095690048     -0.01765837841972
  O   4.34377860109959      1.14218090340654      0.48106057105361
  H   1.55536206806739     -2.00000982702910      1.10272056657037
  H   4.02386757066703     -4.34748651187017      0.23168463808362
  H   5.90910497512819     -3.06480642968350     -1.22436341029094
  H   6.16702484493194     -3.21842681691217      0.51241166218872
  H   7.95285412699682      0.31837519802125     -1.18534750888384
  H   7.53400521630144     -1.37958463651711     -1.49780008395590
  H   9.24009664194109      1.69248226001811      2.77531977647533
  H   7.24240888332286      1.96576592323816     -0.28696177041081
