25
Coordinates from ORCA-job 9124optt
  Br  0.97811327801314     -0.14623964014964      0.10491333833750
  C   2.88001529218453     -0.00647299877764     -0.00906905780759
  C   3.50751166675315      1.24950779688035     -0.02736903808303
  C   2.97285041227509      2.63394451862760     -0.07525778789454
  N   1.79935725224692      3.11574620833527     -0.23400493835377
  N   4.07205354179564      3.45814219781620      0.06725568917679
  C   5.33253090046462      2.74964965055850     -0.04264793268253
  C   4.89011559832446      1.31579800585487     -0.03921208265990
  C   5.71987735199998      0.18232983903820     -0.04862244586114
  C   7.14940478920056      0.30663410329428     -0.07236309978043
  O   7.77140161591416      1.37207672656360     -0.09553401848902
  C   5.08032713754266     -1.11586043378469     -0.04915767944728
  C   3.63642528382127     -1.20168012247186     -0.02397810093873
  C   3.08152035121233     -2.49572776027861     -0.01850878741308
  C   3.90634053273847     -3.60690472988978     -0.04274446077409
  C   5.27851417763073     -3.41723786975293     -0.06960076673896
  N   5.84599564440468     -2.21278572785874     -0.07177311355669
  H   1.11713828100110      2.37192423319482     -0.30564483951898
  H   3.97075084615601      4.40544335396293     -0.25450465480867
  H   6.00737430102004      2.96215229469943      0.78822072944740
  H   5.87923305278965      2.99061905127165     -0.95948916003052
  H   7.69684280860519     -0.64700241831281     -0.07007483959428
  H   2.00745191418062     -2.61302611516935      0.00186602203192
  H   3.49120087874020     -4.60674284718481     -0.04117861583954
  H   5.95365309098473     -4.26728731646682     -0.08852035872082
