23
Coordinates from ORCA-job 9125optt
  Br  1.16034769662702      0.12259848341112      0.37230523359109
  C   3.04856850564248     -0.03454325996442      0.16395009838103
  C   3.67786639500817     -1.21317914600950      0.09686345018229
  C   3.25924511459129     -2.65694676460927      0.09330207106718
  N   2.09968781311723     -3.18129500478641      0.20985035618667
  N   4.41196463069265     -3.42508768186782     -0.08393666773868
  C   5.44252976928945     -2.59851922336824     -0.15782460484607
  C   5.11419912242149     -1.22427403223418     -0.04823832339325
  C   5.87510340126134     -0.04506379052863     -0.00292271186439
  C   7.29821246943091     -0.03249174696234     -0.15454327753064
  O   7.99435744223873     -1.02853035155544     -0.34608935001147
  C   5.16887361551416      1.19880310424151      0.23452157992978
  N   5.76486218472200      2.30954935510547      0.47165827320435
  N   4.92467299380599      3.43022842178832      0.69477389888903
  C   3.79300705325790      3.48584647657646     -0.12679025147786
  C   3.17119559048145      2.34456129966458     -0.39262594098154
  N   3.72944301343817      1.16939777543913      0.16474107475178
  H   1.39954254501281     -2.45721152460572      0.33615599590801
  H   6.45084313331709     -2.96667569061808     -0.28074486138534
  H   7.76561655017016      0.96375774916744     -0.09705922713471
  H   5.50304767272954      4.25253601392680      0.62690802340737
  H   3.48277708501388      4.43744874477746     -0.53425537348838
  H   2.32303620221603      2.24809079301174     -1.04999946564626
