28
Coordinates from ORCA-job 9126optt
  Br  1.35956420924252      1.06961747270519      0.52344748042718
  C   3.17105612241563      0.43585131184587      0.52199987070791
  C   3.45063622794267     -0.86705939089117      0.01619762923385
  C   2.67524762427147     -1.97995901861917     -0.45664624868542
  N   1.42926699370296     -2.17758787592928     -0.73528579352827
  N   3.58706544243209     -3.05392364217178     -0.61618166394200
  C   4.96624084776525     -2.58494660853054     -0.59696294126777
  C   4.83049114725149     -1.21557199058045      0.01713091015270
  C   5.77975316664786     -0.37319750266270      0.50090086983842
  N   5.49212420465189      0.86665135769177      1.00464868005899
  C   4.19232108766634      1.23741325181469      0.99562014534281
  C   3.97129710931650      2.63645022006242      1.51165476431876
  C   4.21150004907308      3.74145467308653      0.49314525136715
  N   4.57791816060233      4.92742882438175      0.79163175778728
  N   3.94474020290864      3.38911277661398     -0.80874511688485
  C   3.99518192331184      4.19666865426749     -1.93544051825889
  N   4.28340841240192      5.42338005488812     -2.03072374237038
  H   0.89717661573730     -1.33316920413016     -0.56078573531702
  H   3.31448046340126     -3.69519472184376     -1.34482635576273
  H   5.39028901734022     -2.51066305197984     -1.60775146712672
  H   5.61048807665387     -3.24456347268225     -0.00996265320357
  H   6.82907243864577     -0.65290034706867      0.50392848292561
  H   4.67587055662065      2.79800397758100      2.32721077749462
  H   2.95798443422893      2.76844264014602      1.89286478197433
  H   4.73097738033614      4.99143368019616      1.79384261308700
  H   3.70222332960750      2.41847752065644     -0.95398904584734
  H   3.73341414505600      3.63282714052878     -2.83157213808178
  H   4.50721061076776      5.79552327062350     -1.10735059443990
