22
Coordinates from ORCA-job 9131optt
  Br  0.94604102686784      0.31031580907155      0.32210690437485
  C   2.83854102542940      0.17691645082566      0.14791113013507
  C   3.59739585931686      1.35571702853393      0.11583039879729
  C   3.30847505997962      2.76082434791471      0.33719459872841
  N   2.23757165130557      3.47326126339377      0.50787374150440
  N   4.55795691899895      3.39575059180443      0.31552615053874
  C   5.56896393043398      2.49558379774507     -0.07618599090713
  C   5.01278734961115      1.26854779848914     -0.15132057565011
  N   5.60008409158302      0.02797406846856     -0.40408659403041
  C   4.83494018870319     -1.12280630706394     -0.26629095184915
  C   3.45649014818318     -1.08320955431089     -0.04909618532506
  C   2.79989854786194     -2.37995986392628     -0.02135138035760
  C   3.24975288609635     -3.53843792254034     -0.63322439491333
  N   2.53505833494184     -4.65608539675486     -0.37589697238435
  N   1.53465457510542     -4.46593670823963      0.39951208949703
  S   1.41969893536651     -2.86181561216396      0.85832922663480
  H   1.41796679011419      2.88069656677926      0.48599766195531
  H   4.56564559052928      4.36648365080007      0.05185990286291
  H   6.59800154622673      2.80189400681394     -0.16346088705898
  H   6.58610530393074     -0.05506836808386     -0.22619561985916
  H   5.37710584289328     -2.05407491666790     -0.29480257711791
  H   4.09286439652091     -3.59557073088845     -1.30322967557564
