24
Coordinates from ORCA-job 9134opt
  Br  1.27935517489798      0.10656579561044      0.86598701741053
  C   2.97137755315298     -0.07003176923131     -0.13637183780658
  C   3.62871454378524     -1.31320282214168     -0.17968598225465
  C   3.15427423414402     -2.65464138377647     -0.39021443157949
  N   1.97228241123092     -3.14221947921593     -0.48003422672461
  N   4.31657329687981     -3.46552403922458     -0.49641425431771
  C   5.54215807658272     -2.68087690251421     -0.37184579755715
  C   5.02018404306643     -1.29161947422618     -0.14136112499238
  N   5.78609664652085     -0.25004471301105      0.06235725749434
  C   5.13321460208610      0.94490665422547      0.24476793293130
  N   5.66222450056309      2.05055006701258      0.57175149696060
  O   3.75298397701434      1.02266261216305      0.01817154021464
  C   4.41853231566740     -4.81276938337835     -0.74530475247077
  O   5.50116548544659     -5.36015240492268     -0.85065591227398
  N   3.21464082272758     -5.47499687204024     -0.86129426602619
  C   3.15101736441533     -6.82271277364475     -1.12757369982032
  N   2.09855858116892     -7.52313689782994     -1.24540354843595
  H   1.28374156285954     -2.40559868613716     -0.36505826823194
  H   6.14315612272516     -2.74733333179816     -1.28053457777704
  H   6.15245439701242     -3.03257933816432      0.46087994311664
  H   6.65882822655172      1.88017797210482      0.67714401165706
  H   2.37386933580237     -4.88992689725696     -0.75481656501532
  H   4.12881060258976     -7.28259706106505     -1.24013732286097
  H   1.26378612310837     -6.95089887153710     -1.11235263164002
