22
Coordinates from ORCA-job 9137optt
  Br  1.25986453562963      0.15371122669524      1.25205383030189
  C   2.85965437718948      0.00905030613138      0.07934833274821
  C   3.48344561820191     -1.24395710182076     -0.06450413286666
  C   2.96093218380941     -2.58107414222446     -0.30464680127876
  N   1.77434549360214     -3.04371321489557     -0.37769484365529
  N   4.09227932378539     -3.39540904913382     -0.47112318399970
  C   5.33941999007609     -2.65372461941899     -0.38071985986642
  C   4.86182139149695     -1.25684945732659     -0.09645005690450
  N   5.68451451078281     -0.23698938047535      0.09113237161357
  C   5.10523611560445      0.96462495019414      0.31655830133044
  O   5.66033499051519      1.99986670581589      0.56642581947725
  O   3.67929089881995      1.06909353479900      0.22642234931355
  C   4.07534022358629     -4.74087196087250     -0.71380111672969
  N   5.20835745646032     -5.42099758328891     -0.86440463178429
  N   4.79174309073717     -6.66302809926809     -1.07296556642034
  N   3.49497953345660     -6.84953172314379     -1.07270249672254
  C   2.99258560119151     -5.64443644043538     -0.84686519150604
  H   1.11445714626284     -2.28806249904964     -0.21436968710055
  H   5.90773102207982     -2.70985236789792     -1.31338494295618
  H   5.97579848367022     -3.03278541717221      0.42260772955335
  H   5.43930164875030     -7.41517280374012     -1.22284973151376
  H   1.94056636429141     -5.44489086347146     -0.78506649103355
