23
Coordinates from ORCA-job 9141optt
  Br  1.13938009290728     -0.36077358806383      0.24192171770911
  C   3.03549854125215     -0.13611502591834      0.11762729299289
  C   3.60004351381240      1.14115317479170      0.02189402370138
  C   3.02990584143838      2.47754456761567      0.02864603578972
  N   1.83641138756636      2.98550752845123      0.13792589621050
  N   4.12529606727621      3.32980428095206     -0.09051922412114
  C   5.32863471764283      2.62690012178077     -0.07335852998305
  C   5.03834442075708      1.30665395851007     -0.03971600347629
  S   6.19099662338112     -0.00901589685113     -0.20046474125361
  C   5.15131177049679     -1.40559686064566      0.07494616246248
  C   3.78637617311300     -1.32000329082718      0.17154522169090
  C   5.90903617599987     -2.67168306513243      0.18483178391205
  C   5.35767598784794     -3.94061434843512     -0.38820868438383
  C   6.53765137892780     -3.28293786254503     -1.04230256107901
  H   1.14896870465410      2.24697431615785      0.20821307450430
  H   4.01546599876972      4.30609573453537      0.11515162766781
  H   6.27889987603054      3.12515029847341     -0.16660370165292
  H   3.25087446536757     -2.25129738639202      0.31531518894473
  H   6.50149125260437     -2.79068453130615      1.09014460237866
  H   4.40744173412803     -3.87764797510404     -0.89938665739790
  H   5.52289467034951     -4.85901753010080      0.15836238847835
  H   6.36606010325577     -2.76501411866316     -1.97572391840282
  H   7.50734050242105     -3.75238250128325     -0.94324099469229
