23
Coordinates from ORCA-job 9143optt
  Br  1.32799669642397     -0.36907262080451      0.36316708747201
  C   3.06606534890469      0.04205224160112     -0.55839343744149
  C   3.77192104854977      1.17053259648045     -0.16420015627412
  C   3.29127654768999      2.53114884423699     -0.06580928926422
  N   2.15079470223151      3.10693677068999     -0.24651180938113
  N   4.42739129780972      3.28594512399742      0.27472732672663
  C   5.57687117405762      2.48614928214990      0.29070412595516
  C   5.18401876965069      1.21126005057257      0.06246745334786
  S   6.12146562398299     -0.25015808891716      0.20404652573253
  C   4.96682268180869     -1.48393765492515     -0.34673153228485
  N   5.29642637200422     -2.70357236142311     -0.40559500377544
  O   3.74035911149044     -1.14905961196007     -0.77700077926109
  C   4.41209129790537      4.71311467969212      0.11353694784159
  C   5.14650538013777      5.39678646952552      1.19091495722435
  C   5.74592194322620      5.94876745523430      2.06801738787199
  C   4.91547350302871      5.14231630014667     -1.20833635800624
  C   5.31173994273809      5.45564662711615     -2.29334548201462
  H   1.44849300579968      2.40856767153634     -0.46779508189093
  H   6.53574063947650      2.89875699278378      0.55585504093654
  H   6.26117701793709     -2.82704673657899     -0.11122169716106
  H   3.35108641684135      4.98497502502115      0.17080025133417
  H   6.27124639800066      6.43559156834833      2.85307157559484
  H   5.65711508030407      5.72229937547603     -3.26236805328247
