21
Coordinates from ORCA-job 9145optt
  Br  1.49071775869773      0.43595385134259      0.24325934009551
  C   3.17119254676929     -0.42469131358035      0.39804805517116
  C   3.43396658864235     -1.68627178515519     -0.01126767535678
  C   2.47458526183169     -2.66110116591402     -0.57299181613025
  N   1.26027475393223     -2.82951148428787     -0.22160126624704
  N   2.97501600005833     -3.49056265164570     -1.59141824014353
  C   4.24608965207351     -3.63477182068987     -1.68733245179829
  C   5.24694288333180     -2.98689411689007     -0.86979998048359
  C   4.85072004954846     -2.00051448684538     -0.03968148650181
  C   5.72661573572854     -1.21407123630495      0.83518788460499
  N   5.33897081685667     -0.02704723822323      1.31184940343161
  O   4.05668279884940      0.41526518930443      0.87466277818338
  N   6.88216822979820     -1.65821709733535      1.31527454254470
  C   7.51863234819279     -2.77301968064026      0.97870149993810
  C   7.42697600120818     -3.63876387120472     -0.16020891438187
  N   8.17306561501343     -4.65273077799326     -0.41472947204046
  O   6.53091824458428     -3.33820840471830     -1.17440041638352
  H   1.03354425938007     -2.21866767537217      0.55885879951943
  H   4.62706303701562     -4.29649283960249     -2.46357927471243
  H   8.33643265718908     -3.04416007270562      1.64188349376385
  H   8.83942476129828     -4.76352132153820      0.34628519692685
