29
Coordinates from ORCA-job 9147optt
  Br  2.26838931745826      1.68272933813199     -0.18795329953057
  C   2.78037732536877     -0.14573159751339     -0.77619624255524
  C   3.83625338599906     -0.77207615605600     -0.07295841715333
  C   4.23819880376645     -0.90781094571126      1.27269706251053
  N   5.28906311894557     -1.69472501653045      1.39421968657067
  N   5.58949116820810     -2.09149410411320      0.11631313278258
  C   6.75813385205828     -2.89564243572659     -0.12303497658627
  C   8.06812015031102     -2.09753321560106     -0.10530944959880
  C   8.14150504905686     -1.01973697664894     -1.20593347301155
  C   8.68627750035478      0.21856996090162     -0.49092120991351
  C   8.09064833318239      0.05684007804859      0.89978110460677
  N   8.27153815344553     -1.37348078525013      1.16270835681132
  C   4.74308084808511     -1.55927653069155     -0.80349091683530
  C   4.69976996803132     -1.69394782003018     -2.19559319120691
  C   3.68682370648726     -1.01507840830037     -2.90097060735983
  O   3.47517519930488     -0.98315334744630     -4.09526520706370
  O   2.75396953706961     -0.26166186934731     -2.11735734471810
  H   3.79762163646106     -0.45678219203006      2.14835975105256
  H   6.63621521545281     -3.38879069653457     -1.08972606866214
  H   6.79438992354060     -3.66813808080973      0.64918097433664
  H   8.87560869861270     -2.82766804321338     -0.23469364940438
  H   7.14161068323965     -0.80594369168978     -1.58756144144487
  H   8.75504162230752     -1.33742943855653     -2.04892530326276
  H   8.39013928332935      1.14913657585275     -0.97378981384358
  H   9.77654936472339      0.18559131530136     -0.43015709737911
  H   7.02996123208455      0.34297303356533      0.88903576844288
  H   8.60261234642852      0.65201573704121      1.65812265097755
  H   7.58926177536563     -1.67834707663622      1.84842702141166
  H   5.41217280132071     -2.26240761040581     -2.77200779997319
