24
Coordinates from ORCA-job 9148optt
  Br  0.91322732881437     -0.18719852307534      0.47861617235097
  C   2.81410697991754     -0.12965492072450      0.27686824265582
  C   3.54665734689049     -1.19180547889068     -0.08744075540452
  C   3.19963070973907     -2.59408068271602     -0.40487939444097
  N   2.10115840719862     -3.17832501149767     -0.69062194357252
  N   4.41202676698911     -3.28594081260837     -0.40094528951702
  C   5.48574414173692     -2.35533552547111     -0.32993293435234
  C   6.87467663140264     -2.81656511466412     -0.24638475881250
  C   7.21443620305428     -3.69220222979288      0.96788890871720
  C   8.36325810472415     -4.54317939671245      0.44956067266917
  C   8.06490168327858     -4.64497493613923     -1.03617270819873
  O   8.50835140279279     -5.44144346349495     -1.81511211069447
  O   7.20346043767650     -3.68401783646599     -1.38627406739137
  C   5.02632020870424     -1.09399564264045     -0.09729774080792
  N   5.77196249589110      0.00521737038076      0.15285149599022
  N   5.22996784416260      1.19825138714392      0.32561721467709
  S   3.53846464255769      1.37307701767954      0.66317642153736
  H   1.33275708141874     -2.51817728004659     -0.66538564687968
  H   4.46899705388320     -4.05177329504144     -1.05732289204715
  H   7.52434289534898     -1.94065211550661     -0.29462953480739
  H   6.34797694778571     -4.30915242970510      1.21132314734092
  H   7.45845415858435     -3.07536061660661      1.82980867895074
  H   8.45808819897813     -5.53715151496187      0.88041194773862
  H   9.32503232846983     -4.03355894844206      0.55227687429847
