24
Coordinates from ORCA-job 9149optt
  Br  1.06091471778347      0.04890600002111      0.06104356248257
  C   2.97156697145842      0.07124548962333     -0.12798739884383
  C   3.68467024306163     -1.12233806479986     -0.09050893673365
  C   3.30941447785742     -2.51757200658382      0.14362885737770
  N   2.19725882862908     -3.16086765521234      0.24144486211547
  N   4.52354883050195     -3.19567033026052      0.23802049181023
  C   5.61124203140580     -2.35071589319120     -0.07896248593248
  C   6.95813906791533     -2.83328914331918     -0.08920258961127
  C   8.09157889086803     -2.22399640527855     -0.47313761677543
  C   9.26276740182623     -3.16411917579189     -0.34283351733690
  N   8.75307644155911     -4.30665939329096      0.44007900445042
  C   7.28638445843106     -4.25268063992845      0.33569285040894
  C   5.11329031551377     -1.09388960794817     -0.24726478847068
  S   5.93175947361411      0.39657558890906     -0.56751810695026
  N   4.69547154627192      1.61557134220022     -0.37782459448841
  N   3.44889326255656      1.29652695980506     -0.23711821986947
  H   1.41502174248974     -2.52647362663965      0.13946777005952
  H   4.52214418710904     -4.18242949708928      0.03897950660365
  H   8.16677757106453     -1.23253271145234     -0.89668540272307
  H   10.13122547144681     -2.72374447867432      0.15353458483765
  H   9.60451560236267     -3.51077155013296     -1.32678279253130
  H   8.99153606946282     -4.13885581941226      1.40906506938381
  H   6.81574790697110     -4.52855856415427      1.28134548513315
  H   6.93305448983935     -4.96366081739872     -0.42147559439638
