24
Coordinates from ORCA-job 9150optt
  Br  1.19571405001675      0.15474110457709     -0.67650360683733
  C   2.90289198230837     -0.10957665768711      0.27957284889748
  C   3.60546121679839     -1.31350756803040      0.12602557549626
  C   3.19930623466829     -2.71073923915963      0.13621516273310
  N   2.06587118965828     -3.28780629435366      0.24081372713187
  N   4.38258918202448     -3.45213887501905      0.00659198211186
  C   5.56773150760580     -2.63348311947453      0.20971367899158
  C   6.63417204799841     -2.87112376203215     -0.82204080487906
  C   7.96994520899852     -2.77211540085587     -0.58211818722246
  S   8.89590793997645     -3.03482960316276     -1.99711775462730
  C   7.48723378768069     -3.28708237742332     -2.93765009002587
  C   6.35884182642726     -3.16751815319914     -2.18911060381058
  C   4.98856504219849     -1.22890360426168      0.15381456320531
  N   5.72464013460017     -0.14154396391046      0.17306160604567
  C   5.03194230765927      1.04011595020911      0.15938901936703
  N   5.52769106723661      2.20762022645347      0.06485858112944
  O   3.63709051252504      1.03159532890509      0.30043854221215
  H   1.33364582864265     -2.58475863677725      0.29204821871265
  H   4.35445833495777     -4.38685658523223      0.38083942884617
  H   6.00381142070720     -2.77902998007983      1.20644477661806
  H   8.45060409177403     -2.53187315678180      0.35280614470257
  H   7.56908620902020     -3.50688802516922     -3.98970270736543
  H   5.35463155422528     -3.28416655246126     -2.57085880789770
  H   6.53416732229152      2.08986894492663     -0.01353129353546
