23
Coordinates from ORCA-job 9154optt
  Br  0.94750802763361      0.15953809561312     -0.13653353047014
  C   2.84556315835598      0.07685783802971     -0.38297610191244
  C   3.56554762181937     -1.03900579153921     -0.19495517220788
  C   3.21179956479623     -2.40914221375518      0.24251050620120
  N   2.10348228464132     -3.04146599835623      0.32370077854600
  N   4.42399602516952     -3.01474702073620      0.55746933987513
  C   5.49633201995672     -2.19573983020251      0.12188815580395
  C   6.90083099344773     -2.62044085489756      0.32051104640483
  O   7.08361542702970     -4.00107300865887     -0.06741853919690
  C   7.69406907819241     -4.74146629247702      0.97305517069373
  C   7.79068766316965     -3.78893909645544      2.13002140019022
  C   7.35897057633958     -2.59757684590721      1.75603099822441
  C   5.04415008707905     -0.98436243099027     -0.29585534749090
  N   5.80001585614698      0.07645404586190     -0.67509936864527
  N   5.25332628629804      1.19154520773171     -1.12662245716743
  S   3.58784847754101      1.56258647889326     -0.80368796021736
  H   1.33739056127822     -2.44317531761976      0.03723565614504
  H   4.48082061065700     -4.01304998330082      0.42242359785242
  H   7.52578356071731     -1.96823081850397     -0.29877019521044
  H   8.68170913975935     -5.09660044251035      0.64981375340093
  H   7.08455516007464     -5.62285532978275      1.20521122817474
  H   8.16227587872227     -4.07292073592905      3.10488500003218
  H   7.30072194117410     -1.69718965450722      2.35016204097397
