28
Coordinates from ORCA-job 9156opt
  Br  1.15382569209720      0.20190801436293      0.36728938336591
  C   3.06826994177277     -0.00492444422660      0.11407824707748
  C   3.64116732379083     -1.30714734182545      0.02486987220947
  C   2.93509973594875     -2.56505623464673     -0.15529134587102
  N   1.79317117140473     -2.79724013096592     -0.71585323296076
  N   3.60654993678650     -3.68778997298672      0.32692136152181
  C   4.94226152950927     -3.60739109055432      0.85869550181748
  C   5.78776550018713     -2.62928610314272      0.04914091923665
  C   5.09907897067631     -1.29729715283442      0.04512854811665
  C   5.73592373181143     -0.08978070768924      0.02366576188045
  Br  7.66103989433771     -0.02740915910429     -0.06931381272337
  C   5.05980033607166      1.14547693000000      0.03242867864892
  C   5.71480419951401      2.48778503736777      0.06187534281762
  N   6.40324172388192      2.85027749006407      1.30457092123024
  C   5.72753929546351      3.05528660064195      2.47827505838957
  N   4.47766164709396      3.10911208504638      2.69282650230435
  N   3.69239120484279      1.11677284669676      0.12943284005001
  H   1.39310256359420     -1.94183623366465     -1.07887572378570
  H   3.29732106438957     -4.54613592025624     -0.09657312280465
  H   5.38132560007883     -4.60596598742852      0.84565854472258
  H   4.92097181199351     -3.27159740182351      1.90216065896180
  H   5.87804243346286     -3.01198566393677     -0.97493699960933
  H   6.79212882017795     -2.54662482800836      0.46388290749368
  H   4.93811928283048      3.23345213677497     -0.11769391045129
  H   6.46158714496281      2.59113982115950     -0.72855689337157
  H   7.34673473144247      2.50784690098662      1.39444649559727
  H   6.40548899394821      3.23004350548459      3.31710378306370
  H   3.93358571792844      2.86436700450895      1.86364371307202
