23
Coordinates from ORCA-job 9158optt
  Br  1.07340075814941      0.25720607615105      0.01017722511203
  C   2.93995870852985     -0.03069069548425      0.17605384275824
  C   3.62589563868432     -1.15753238837915     -0.09978510886186
  C   3.10957726238153     -2.47693870173844     -0.60084425833726
  N   2.02235172828512     -2.64124942885721     -1.26728781189832
  N   3.88003496581285     -3.57955858093322     -0.30874191184247
  C   5.14945101752602     -3.42743301208604      0.02234094905173
  C   5.82182996729853     -2.22069993915010      0.17292465539807
  C   5.05312733512483     -1.05886131042794      0.13084128622939
  C   5.56734170900087      0.26008497111094      0.21052863024372
  N   4.88567153030021      1.34306831970170      0.37854002526696
  O   3.50472878981754      1.09827865117905      0.67894266610251
  C   5.89824805005564     -4.75870299582096      0.17717712971788
  C   6.38623998454850     -5.23468993548405     -1.12479583602374
  C   6.76701813709411     -5.61328884636209     -2.19534756197698
  C   6.99117533407990     -4.71497222277873      1.15498605137359
  C   7.87605667715908     -4.68441165106641      1.96160192045352
  H   1.56956382858264     -1.75078435546184     -1.43481994237014
  H   6.88550029264410     -2.18748968185976      0.36686247742979
  H   6.62913113382401      0.44054155562165      0.06581618621709
  H   5.14611284273697     -5.47048691427088      0.52897850087337
  H   7.09089690500189     -5.93594356882810     -3.15428708474907
  H   8.65768740336182     -4.64544534477506      2.68013796983194
