25
Coordinates from ORCA-job 9159optt
  Br  1.26115252509481      0.42183450221432     -1.65588688782707
  C   2.96825388653921     -0.03493587017908     -0.07811074954426
  C   3.67023198534110     -1.23062221129997     -0.10806338698266
  C   2.93267572671926     -2.50851025067177     -0.18127745425871
  N   1.67640768668383     -2.66604224230905     -0.12353492569296
  N   3.75075215680302     -3.66556774535190     -0.30889222653609
  C   5.10521377226834     -3.52590467259313     -0.82007063959739
  C   5.85135988028030     -2.49113571606698     -0.00115872823714
  C   5.09037765542723     -1.19203491845550      0.02163259710116
  N   5.79226399993442     -0.09849955349058      0.17438246208559
  C   5.11191400481087      1.06318146234498      0.22230159723727
  N   5.58599089797704      2.27800168547837      0.39302117667404
  C   4.48968588699032      3.09678649142962      0.36833620272975
  C   3.32957291052783      2.40316162085806      0.18502663527863
  N   3.71309679599565      1.08305280853653      0.09218777490346
  C   3.27477434341354     -4.89656972719045      0.03305713088145
  O   3.90391813987988     -5.92916692180310     -0.07799916929549
  H   1.21890038773077     -1.76260542962023     -0.01937144669581
  H   5.06347584643921     -3.21694398590138     -1.86854209340384
  H   5.56926915773491     -4.50738620690653     -0.76545320000179
  H   6.84616444992593     -2.30340862843447     -0.40407944260456
  H   5.96953838292421     -2.85661689785998      1.02353567082010
  H   4.59346082334220      4.16438811367937      0.48224745075897
  H   2.29820515142982      2.68723761079603      0.08313154266446
  H   2.25734354578621     -4.84769331720315      0.43258010954290
