20
Coordinates from ORCA-job 9160optt
  Br  1.26065905311633      0.02682495438807     -1.04844965592313
  C   3.05855536537941     -0.04013924196704     -0.40270994668088
  C   3.65596714193191     -1.28944616557937     -0.09348357330132
  C   2.90619455521070     -2.54868573014216      0.14697388742027
  N   1.72823428466217     -2.63972700960163      0.64715991849143
  N   3.55613338191736     -3.73922496873810     -0.17444445728219
  C   4.85514320132931     -3.73097637315537     -0.15419442712858
  C   5.68290782828266     -2.61470390132192      0.07554494847624
  C   5.05860734188003     -1.38021771716598      0.03890473580562
  S   6.11989822280182      0.00860604035141      0.10605757373027
  C   5.03493401781707      1.35858689875648     -0.04970315719666
  C   5.61697131645180      2.66366670055874      0.07918146355840
  O   5.00955314326134      3.72045548453141     -0.03965915204191
  C   3.68901430691707      1.18237605094212     -0.36238073394903
  C   5.52371389210978     -4.99494069638714     -0.42999138375007
  N   6.10020174908949     -5.96435903651026     -0.64120155849452
  H   1.37132220039270     -1.72048418886035      0.88835019096611
  H   6.75533118038796     -2.71787807165295      0.14380103108232
  H   6.70142931287196      2.67205507667024      0.30446738284229
  H   3.13222850418905      2.08521189488380     -0.57722308662465
