22
Coordinates from ORCA-job 9161optt
  Br  1.20934570708118     -0.00564882995588     -1.00598528403040
  C   2.98701856220653     -0.07168367327051     -0.30660125383410
  C   3.63443037667538     -1.30223623367316     -0.02446481677380
  C   2.96288621171104     -2.61044572448918      0.15105861373175
  N   1.73873757742064     -2.79734281418498      0.50400431568449
  N   3.73843178022579     -3.75120458075078     -0.06093374879112
  C   5.02665614374263     -3.64881649569557      0.01831692169744
  C   5.75635745465514     -2.47035001940975      0.23201429919493
  C   5.03483479909681     -1.29281802908266      0.15299550900855
  S   5.93624352130148      0.20713870736834      0.24914920307593
  N   4.85165832466730      1.44944523568039      0.05216474070503
  C   3.60128932408225      1.18314340965027     -0.23854615813212
  C   5.78441457538926     -4.97169117036007     -0.18273851201095
  C   6.62792404762847     -4.95719992245456     -1.38198747855394
  C   7.30359281957000     -4.93362130873208     -2.36930974929845
  C   6.59459860576245     -5.31453368293579      0.99647030520767
  N   7.22553974430471     -5.59293553941815      1.91196438789396
  H   1.27808663869556     -1.91100159662079      0.67725896286768
  H   6.83220967482230     -2.48046703979450      0.34285101474296
  H   2.98443359825223      2.05516936806947     -0.43814492276442
  H   5.01295097344524     -5.73701690318149     -0.29123454294528
  H   7.90035953926354     -4.90188315675852     -3.24830180667581
