24
Coordinates from ORCA-job 9164optt
  Br  1.13661977037927      0.10077164283785     -0.87202669850419
  C   2.86968589107211      0.03147980072568      0.19825362481666
  C   3.65625325846177     -1.13337323128709      0.11593881252869
  C   3.27628080902560     -2.55282877174830      0.18745462408105
  N   2.15454617566200     -3.13084547077714      0.35730481359043
  N   4.46385696646727     -3.26078682808437      0.03120280870805
  C   5.63303907569429     -2.41093019957553      0.13606935395161
  C   6.39836805414432     -2.60323942317308      1.46060993240557
  C   6.85383803463972     -3.98048875470599      1.62222607608235
  C   7.20139319328226     -5.12389438092236      1.71984984103058
  C   5.02899212420779     -1.03291006363569      0.05640912963969
  C   5.71396278392456      0.18245866545855     -0.01826737989264
  C   7.12310886501535      0.22876301911154     -0.11121765365869
  N   8.27507856696905      0.19205452219748     -0.17742160952270
  C   4.94884761934603      1.40748007345544      0.01327068469917
  O   5.39043381149838      2.54548794987373     -0.03241314956345
  N   3.56601998496244      1.21700148097227      0.14589095393363
  H   1.41836490554602     -2.43241903688397      0.41351715655076
  H   4.49656203629792     -4.20656522407966      0.37829025876757
  H   6.32977701190660     -2.58245369722916     -0.69009726841306
  H   5.73349018879551     -2.33826965871815      2.28664219643029
  H   7.25484430989143     -1.92565591929163      1.48224269614368
  H   7.51711375115795     -6.13446900449998      1.81325082574642
  H   3.05152281165216      2.08263250997961      0.22401997044853
