24
Coordinates from ORCA-job 9166optt
  Br  1.37380231297008      0.33039019159865     -0.77847336535841
  C   3.20042637614542     -0.00081469186728     -0.38980079757370
  C   3.74631337751311     -1.19769934246030     -0.11121052680342
  C   3.00488589694323     -2.48387617019344      0.12040260570577
  N   1.82908589704521     -2.56845491572744      0.62331471888278
  N   3.67364161937436     -3.65343225510365     -0.18942528652224
  C   4.98133856929653     -3.61389942556464     -0.23611544437754
  C   5.81644260732418     -2.49908711143182     -0.07086808660012
  C   7.31467730323669     -2.66099144887717     -0.06583832754022
  C   7.96412943604390     -2.26255209850445     -1.32074170807281
  C   8.48067677669131     -1.93382540278128     -2.35177724759540
  C   5.22153073023563     -1.23621259718833     -0.05484827061694
  C   5.90127532474818     -0.02141798109931     -0.06328506907691
  C   5.22960964529308      1.17838422343780     -0.22041151300617
  O   3.85917581753025      1.15424133064459     -0.49276610582056
  C   5.79163475300642      2.47864985217933     -0.20508343893081
  O   6.98814022791867      2.72593144397822     -0.00274236843576
  H   1.47250445610335     -1.64872120414854      0.85858929642205
  H   5.46853857677707     -4.57327482490566     -0.42223706022909
  H   7.55955585390798     -3.70769909400395      0.13088664755474
  H   7.76261109284051     -2.08044289943389      0.74790332147293
  H   8.92213247283862     -1.62328046569243     -3.26704650701355
  H   6.97864351150998      0.03660323387160      0.01148292804199
  H   5.06522736470609      3.28948165327343     -0.39390839450660
