25
Coordinates from ORCA-job 9172optt
  Br  0.95488927147018      0.02387247019706      0.18240607682198
  C   2.87008202751393     -0.02961576163224      0.12260731691390
  C   3.54762365173176     -1.25908899276547      0.09114865059737
  C   3.16571350728241     -2.64855026372245      0.11942228293192
  N   2.05916493282331     -3.30536813644817     -0.01782229960540
  N   4.37137230814222     -3.34795361314925      0.31847339961524
  C   5.48247887789766     -2.46965212937791      0.23228621561525
  C   6.81754942380228     -3.05425215197368      0.55887562875317
  C   7.33419005141035     -3.98002251277939     -0.46677184410030
  N   7.74130555546289     -4.71172657461524     -1.25129853943499
  C   4.98909751645229     -1.20553402835574      0.11938347148463
  N   5.59477293680764      0.04772473488432      0.03403419772714
  C   7.02545233608247      0.13682181323912      0.14148780354071
  C   7.58021957435394      1.42808873018314     -0.27270350688714
  C   8.08370500899226      2.46361653967643     -0.60051991753433
  C   4.78439447596398      1.18269929815519      0.24421123519738
  N   3.47410377662446      1.13910347385181      0.23595218300177
  H   1.29423675806261     -2.65774355689736     -0.16972468683807
  H   4.41446781516526     -4.26460858907977     -0.10341295984946
  H   6.74581665686403     -3.63636130987964      1.48625496787753
  H   7.57959323399397     -2.29633590792598      0.72133596023327
  H   7.45736792270582     -0.62915768706672     -0.51039783051062
  H   7.37079143630587     -0.06843302808282      1.16804782672741
  H   8.51298452170931      3.38989631162008     -0.89653111000321
  H   5.30162642237898      2.12758087194475      0.29225547772485
