24
Coordinates from ORCA-job 9175optt
  Br  0.79037908126684      1.16290404197055     -1.62597364981341
  C   2.47931360714497      0.63390368291428     -0.89990393878121
  C   2.72221277324898     -0.70499712241128     -0.51964718094541
  C   1.68041020467546     -1.68219505572151     -0.63207871167597
  N   1.53078090497446     -2.96348186125548     -0.45205606361193
  N   2.53363836478961     -3.76639177786824     -0.05378395782968
  C   3.79541739374231     -3.43792892580735      0.36309096206435
  C   4.44119790334053     -2.26447845734333      0.38331713008922
  N   4.02064244272103     -0.98909184086816     -0.02289562936256
  C   4.96119060146199      0.00404011113715      0.09681677231861
  N   6.18522182198418     -0.20139756541324      0.56636513626175
  C   6.80795244158461      1.03615064312066      0.52699282522594
  N   7.99546321030773      1.33405358606988      0.87769552277252
  C   5.85164966401762      2.08899745864927     -0.02593283979533
  N   6.09004698814702      3.33103207725889     -0.19978975301150
  C   4.65470202225192      1.33846145787421     -0.29029508744652
  C   3.40602824744953      1.65312480744194     -0.79666570032805
  H   0.75325807019132     -1.24751953667667     -0.97186042446126
  H   2.22536995304784     -4.70629387589497      0.10736640775438
  H   4.35439712933049     -4.29386504815426      0.71773348990192
  H   5.45464236138014     -2.25399866293325      0.74470651886324
  H   8.46104427373052      0.49098200509496      1.21321836729299
  H   7.05238817886348      3.50246562161251      0.10285147242480
  H   3.16465236034731      2.66152423720344     -1.10127166790686
