24
Coordinates from ORCA-job 9176optt
  Br  1.10019345566491     -0.45274536375679     -0.29763945805656
  C   2.96665830814487     -0.17077288370604     -0.11231752002707
  C   3.54816275335234      1.09224069119474     -0.10391145914014
  C   3.11093639646357      2.46637977353833     -0.19564591510631
  N   1.94612515299925      3.03313819388792     -0.21557081922548
  N   4.28917433482725      3.23011356770195     -0.22671055215530
  C   5.41088089719904      2.39556249652123      0.02190867279018
  C   6.79346768015859      2.89874753823825     -0.02740244120800
  N   7.15729443806753      3.74244838472719      1.12948151632199
  N   8.13340883233603      3.44013025989710      1.94951536750703
  C   8.11366095065049      4.41804146413715      2.85405261782069
  C   7.08607164009540      5.29687335330095      2.51744550768996
  N   6.49768132378806      4.83953867795899      1.41407029988118
  C   4.97164526779533      1.11586865166895      0.04903299294673
  O   5.74353055976700      0.00125773451252      0.11187158408688
  N   5.11472766104127     -1.27724310258877      0.14556745834530
  C   3.80740320492577     -1.28017002157889      0.02725883590690
  H   1.22517224093749      2.32018671185702     -0.18040023837249
  H   4.24729178348142      4.14386350247520      0.19982650844060
  H   6.96889523358410      3.51663152140931     -0.91341186931174
  H   7.49400111426879      2.06756333784198     -0.00993917025371
  H   8.81251292494522      4.43461461934696      3.67232532439917
  H   6.74729512348871      6.20031465043151      2.99457836084948
  H   3.39080872201754     -2.28058375901679      0.04801439587070
