20
Coordinates from ORCA-job 9177optt
  Br  1.05784416353022     -0.08378241350738     -1.03902120286359
  C   2.72957845926681      0.04995085758847      0.09386504763671
  C   3.49235730618210      1.25340027039181      0.04719875345053
  C   3.05536031401090      2.65053780301150      0.11409932981445
  N   1.91778534603433      3.18179698799898      0.30428739952318
  N   4.20366078009464      3.43625618155018     -0.09231071975985
  C   5.41173105005592      2.63901975673413     -0.00171383848044
  C   6.20386344768409      2.93824819422301      1.20617701359983
  N   6.82160101619974      3.21868055829976      2.13075231208363
  C   4.87354808150764      1.21853718171218      0.00119024257433
  N   5.66544851602348      0.15541078448677     -0.01768091943490
  C   4.94318089230335     -0.98197921204697      0.02416492127181
  C   3.57581414443395     -1.07735467791197      0.06161075487354
  O   3.08535771940283     -2.36607002491881      0.11079715249137
  C   4.04220916436977     -3.31577907391967      0.12144110495368
  O   3.80321291889805     -4.48545027350211      0.15800781385966
  S   5.65901974787733     -2.58523054359154      0.08443819265873
  H   1.21416093369835      2.45210484742826      0.38893803550925
  H   4.18787403880432      4.35594723532464      0.31976083886992
  H   6.07139195962208      2.78975556064873     -0.86100223263182
