22
Coordinates from ORCA-job 9181optt
  Br  1.04227320399949      0.15031946481766      0.34105198480183
  C   2.95875468144243      0.00527776947575      0.12865038823073
  C   3.52451967478196     -1.25621928852448     -0.08965835549628
  C   3.03514316604950     -2.60965483549824     -0.20077894140991
  N   1.89916973232726     -3.20178615420239     -0.13165241537727
  N   4.19841031619011     -3.38522888891566     -0.42530837580434
  C   4.16902382187408     -4.81014254303072     -0.53729265086741
  C   3.94084262187107     -5.29013647203524     -1.91370922409471
  N   3.78248867506119     -5.70224851307946     -2.97094294668074
  C   5.38002560099001     -2.65265141680948     -0.43835824040488
  O   6.48616332379534     -3.14098248293181     -0.57912909627891
  C   4.95066498205665     -1.26643620189913     -0.23292257140525
  C   5.67973160565192     -0.11201753011258     -0.15935455230203
  C   4.98326265010724      1.08453557802647      0.06384154368196
  C   5.66400394031237      2.35537422871845      0.16380184908187
  O   6.87045271679175      2.52511299534566      0.06470930354871
  N   3.61095183523188      1.11132384844535      0.20518694423029
  H   1.16254123124192     -2.52657265090816      0.04352389845520
  H   3.36276735457201     -5.19497897588723      0.08820908185985
  H   5.13313964530425     -5.19753505070667     -0.20476114404559
  H   6.75694435807240     -0.09608969511563     -0.26361762994593
  H   4.98272486227507      3.20673681482764      0.34751115022283
