25
Coordinates from ORCA-job 9182optt
  Br  1.13128383254463      0.05085738405544      0.18368806059991
  C   3.01729868739427     -0.13089577076841      0.07919736524688
  C   3.65328301679782     -1.31321945404642      0.05268629020233
  C   3.00254926950552     -2.61205355125458      0.04087115853236
  N   3.62134695853068     -3.74519523499696      0.05243317844301
  N   4.95514593815844     -3.71489123367462      0.13973895343113
  C   5.72836604111802     -2.56456302087785      0.08929387466971
  C   7.20602014356096     -2.78243430700621      0.18315563848693
  N   7.90457444737881     -2.52684019232908     -1.06806269774165
  C   8.10815712792313     -3.48439864971580     -1.97671169442553
  O   7.88006426404758     -4.67515999143181     -1.82610205440360
  C   5.11713764553529     -1.31885022508289     -0.00975632565371
  C   5.83366130002872     -0.09995250985833     -0.18658163184669
  O   7.08986749256593     -0.01119797991670     -0.37514117589368
  C   5.06274948949592      1.16537322024529     -0.16065251263746
  N   5.57414642506191      2.33292834670590     -0.29306241994497
  N   3.68847598534396      1.06947554393694      0.03345305494205
  H   1.92330103098247     -2.67259845770015     -0.01075668650534
  H   5.40161502932225     -4.60020224722011     -0.03619975272488
  H   7.41353232331565     -3.81202404900201      0.47591866464091
  H   7.62897296647284     -2.10679684158382      0.92484927755012
  H   7.93417120483927     -1.53521767987006     -1.29902393221769
  H   8.53791794784628     -3.09635400765458     -2.91537299738022
  H   6.57637430476645      2.19120981572782     -0.41480614502131
  H   3.17998712746312      1.93800109331902      0.01894450965141
