24
Coordinates from ORCA-job 9189optt
  Br  1.05308045779601     -0.01224033142238      0.70985662830508
  C   2.86559217088246     -0.12160215010168      0.18350347763470
  C   3.54031764982102     -1.34125870143803      0.00478575747070
  C   2.91625844204794     -2.65906443158154     -0.21598394720050
  N   1.76416244129903     -2.90319190507028     -0.72013890042452
  N   3.68956467683566     -3.74830348615459      0.15273426986225
  C   5.04060279856216     -3.63658871272169      0.59449425904389
  C   5.74584738578751     -4.96550353640870      0.49610300305461
  O   5.18365876342062     -6.01295649255316      0.34088480915188
  C   5.76743224791395     -2.50911715087338     -0.13532334856521
  C   6.02711817060428     -2.85911853557944     -1.58467417699252
  O   6.20413905359666     -3.98637162701245     -1.96637427647205
  C   4.95145608225131     -1.24824868673548     -0.03047704327041
  N   5.66759737293439     -0.16368481515740     -0.03067510159074
  O   4.94638506092386      1.04086751702780     -0.07577059555127
  C   3.58808284839757      1.11171822764787      0.19426544819274
  N   3.08609907537023      2.27125642601755      0.39037997593689
  H   1.29400057719662     -2.03838616236905     -0.96010168611131
  H   3.37842209897207     -4.65152830334002     -0.17144523263506
  H   5.09656558528339     -3.38691213223910      1.67012121181926
  H   6.83951242454062     -4.91751534341155      0.65911026638198
  H   6.74366195839759     -2.30938619303800      0.32138447344607
  H   6.06134547023248     -1.99898325052164     -2.27698204739078
  H   3.83409718693248      2.96011977703639      0.34632277590434
