24
Coordinates from ORCA-job 9190optt
  Br  2.54163334605374     -1.56013168146767     -2.38370938371284
  C   3.76791644568739     -0.97916225794711     -1.07467863919678
  C   3.53331988059894     -0.89961071160599      0.23590061886816
  C   4.66572884622550     -0.36603883921696      1.02901824313558
  N   4.59915017653917      0.31782003773211      2.09295913357403
  N   5.92136507310434     -0.84803601462515      0.56979863254874
  C   6.00292319227320     -1.17783124403122     -0.64431476224203
  C   7.08034757356646     -2.09499351878233     -1.15733682804596
  O   6.57480526402178     -3.41336071850678     -1.22653018169917
  C   6.26771662981578     -4.03348516009554      0.02265866180526
  C   4.82382737987661     -4.50583599789807      0.06607232794290
  O   3.98744922576137     -3.38783423576807     -0.05970561422244
  C   2.95420487239611     -3.18357247134436      0.86683208115026
  O   2.53236613976680     -4.11395878623247      1.52497065462086
  C   2.56787984505528     -1.76581926437755      0.96659146374808
  O   1.72466379292944     -1.34213282134348      1.78773112301952
  O   5.04015859987184     -0.92733404444169     -1.58138920034935
  H   3.61317059209221      0.48788640497033      2.29938244682679
  H   7.94159734829034     -2.02804513021447     -0.48756537168686
  H   7.37122273535792     -1.82740700889001     -2.17249189070123
  H   6.43969232931817     -3.33569776124410      0.84558117512032
  H   6.93583744661540     -4.89342829945090      0.14225222479687
  H   4.63395939349276     -5.19888575978737     -0.75968020645739
  H   4.62806387128913     -5.02810471543098      1.00665329115669
