23
Coordinates from ORCA-job 9194optt
  Br  1.23397761558230     -0.12560971055372     -0.99985621844586
  C   2.82394088806357     -0.07959734392323      0.17317506143651
  C   3.75263577589781     -1.11086486553276      0.11340265884952
  C   3.50233568670282     -2.56259906272158      0.08557285550522
  N   2.42600031262694     -3.26893908293060      0.08335581371488
  N   4.76066236445172     -3.12248897516067      0.10472203688003
  C   5.77705042965332     -2.17451276245098      0.14249865476061
  C   7.13448347986058     -2.63383813974715      0.14873096340363
  O   7.42126629816599     -3.82814907398234      0.15016477427740
  N   8.15124418847208     -1.65329330781824      0.19853108915540
  C   9.33636602875775     -1.88352241946632     -0.58794317696926
  C   8.38301095934894     -0.79242087052058     -0.93339968039581
  C   5.16673325603850     -0.92629618594928      0.13981599950596
  N   5.81226504444875      0.29905236536857      0.03475943999954
  C   5.14131267104445      1.37004787939647      0.12980931684976
  S   3.41916689785186      1.54347694312465      0.46967556957079
  H   1.61927587133172     -2.65392697851650      0.06415609635877
  H   4.93673919692342     -4.11132264376649      0.14683525105557
  H   9.33912633186968     -2.77523074186199     -1.20393588840909
  H   10.27537673438750     -1.64905349016737     -0.10152795514809
  H   7.74298269847430     -0.93748051509201     -1.79627083473291
  H   8.60530101068979      0.23977806678019     -0.69826411248564
  H   5.64874625935606      2.32579091549199      0.00799228526309
