20
Coordinates from ORCA-job 9200optt
  Br  1.14883619760915     -0.04434644769446      0.73337408819294
  C   2.97348715471724     -0.10182873671005      0.18874154805583
  C   3.63283470760340     -1.26102557623234     -0.09287708638929
  C   2.93964733115470     -2.58596026206826     -0.25983436630074
  N   1.76494452985990     -2.80932916301968     -0.69491177168395
  N   3.74182548389150     -3.64714393658827      0.06912499193485
  C   5.11877721046708     -3.60716590644999     -0.00931101156255
  N   5.77584812229654     -2.49671685416529     -0.22466028248433
  C   5.08778776813279     -1.31905952354512     -0.25778334348038
  C   5.81902398998795     -0.16995631249363     -0.40570330462615
  S   5.21497713001544      1.42276923363448     -0.31586083660929
  C   3.53615507379675      1.25427143385841      0.17451354008917
  O   2.91401713176291      2.26470343131799      0.42319923779964
  C   5.74002548381378     -4.88775815853488      0.13951199480324
  O   5.07696384285498     -5.94196791768800      0.30588425000625
  C   7.19249707099372     -4.92153092438926      0.08590042071787
  N   8.33900606142802     -5.01970428773217      0.05473124049406
  H   1.25473623341318     -1.95286960123885     -0.86565205171358
  H   3.33566701825846     -4.57572308947322      0.04323584077978
  H   6.88894245794244     -0.24765740078738     -0.53862309802336
