24
Coordinates from ORCA-job 9205optt
  Br  2.05487935378673      0.25209570215280      1.78124423723913
  C   3.57594890944191      0.04936597376597      0.62559490360783
  C   4.40951906348953      1.11955418185200      0.29353966039205
  C   5.71219056199954      0.70628723407238     -0.21043113834295
  N   6.84529699954276      1.29533472248780     -0.06712184125932
  N   6.97457648523549      2.39392875337057      0.75567925227538
  C   6.25443823255388      3.57388412997784      0.72752584053878
  N   6.88469573246439      4.63511785122146      1.08299659698543
  C   4.84529475020181      3.57073198399643      0.34325851653925
  C   4.01492618393345      2.51485326135714      0.22634235144147
  C   2.56900278985195      2.79346746159090     -0.12463662923369
  C   2.25362329978581      3.86732713206040     -1.13565964137426
  O   2.99611949958721      4.64971896759906     -1.65768852371093
  C   5.77214770643240     -0.62169910982090     -0.94208392385515
  O   6.59088097036469     -0.80984292397141     -1.82428224390815
  N   4.89648253595076     -1.59629372605764     -0.52763517213272
  C   3.89930384150855     -1.26223778095401      0.26754444642072
  H   7.95268838747723      2.59186366551077      0.90780688182203
  H   6.24966330898947      5.42753231086691      1.07663638009835
  H   4.44567512082450      4.56068324323345      0.17560701612848
  H   1.97422850832363      3.04603070945239      0.76154719098338
  H   2.09105229674031      1.89070386404111     -0.51518682281316
  H   1.17229123583312      3.88711541405460     -1.39078765772913
  H   3.27307422568079     -2.06852302186006      0.64019031988716
