25
Coordinates from ORCA-job 9206optt
  Br  0.96874950285064     -0.48788110764352     -0.53628094023983
  C   2.83246607690748     -0.17021579746151     -0.33706365049550
  C   3.74872590641933     -1.15693752284729     -0.08244854068976
  C   3.55394888017351     -2.60253357538894      0.08579968417315
  N   2.55911879182419     -3.41214350938124      0.01103178953028
  N   4.83451831728466     -3.10530071857293      0.33813145445359
  C   5.79269127106858     -2.08842129126059      0.19147708750997
  N   7.15070824526015     -2.44336200458014      0.25744167184680
  C   7.86207994811222     -2.36208854039943     -1.02063188136222
  C   9.13871511320268     -3.07096841780232     -0.95075020348589
  C   10.16748372456687     -3.68199422468724     -0.88776030345871
  C   5.19430529195799     -0.89039240800776      0.00771753780423
  C   5.74401579823817      0.46420965140601     -0.05793309057914
  C   7.11354883594327      0.75753809894384      0.25133488040335
  O   7.63114732339487      1.88333545057993      0.19032302215227
  C   4.91190460699615      1.52860921087559     -0.36582839716067
  S   3.22540324610700      1.46948311375643     -0.60011561740960
  H   1.70332396203246     -2.90974249728194     -0.18508060353357
  H   5.02031707273387     -4.05501244689296      0.05581609838917
  H   7.27352914826492     -3.35109909190816      0.68624385218112
  H   8.03876335788887     -1.30932549806977     -1.25577273760562
  H   7.27188140379228     -2.78189615578451     -1.84536179775466
  H   11.08669627721531     -4.21266181718802     -0.83066158007667
  H   7.71613744185587     -0.09916980950156      0.59278478864629
  H   5.31882045590852      2.52997090909804     -0.39341252323837
