22
Coordinates from ORCA-job 9213optt
  Br  0.97893479869406     -0.12726002821182     -0.21961371265431
  C   2.85470661797188     -0.05854904682737     -0.09672285306691
  C   3.62183739796608     -1.23150378616046     -0.14897046426855
  C   3.39535298638208     -2.61025004012032     -0.27393672786805
  N   4.51034970886564     -3.32684449812677     -0.28060684210998
  N   5.53437079063915     -2.40373719124756     -0.15150580635497
  C   6.82019529279298     -2.88560901632229     -0.17486646974096
  N   7.17953781651352     -4.09304001708779     -0.30621503965052
  O   7.72345473710743     -1.88940495061240     -0.03620383542546
  C   9.05490632705739     -2.33737602514364     -0.10298075941454
  C   9.94728094459872     -1.17937487580267      0.01738566775954
  N   10.71052275226815     -0.33034477799089      0.10374176838991
  C   5.03799387146912     -1.09822607664468     -0.06778494398415
  N   5.71295432912035      0.00316169193141      0.05299675954521
  N   4.89917169559327      1.10145927384790      0.10148661315849
  C   3.50453220597265      1.19877513770507      0.03910204112499
  O   2.99472313601921      2.31901773881544      0.10541260512780
  H   2.44253635478735     -3.10928681859612     -0.36182558529151
  H   6.34790343530712     -4.66992261193489     -0.40027709871459
  H   9.24800789657965     -2.84511032293652     -1.05005712522113
  H   9.27102323881744     -3.04785514483625      0.69710015681053
  H   5.38070366547669      1.97928138630262      0.20034165184915
