22
Coordinates from ORCA-job 9218optt
  Br  0.82015107678419     -0.59020769846870     -0.67116798131974
  C   2.61982828203741     -0.45531682359961     -0.05213631032901
  C   3.21489342984274      0.77933854290408      0.03012248931152
  C   2.54893154234905      2.05825590664157     -0.12494801020323
  N   2.70698989306487      2.84456479553769      0.90262572966619
  N   3.32644167717083      3.98880271202344      0.42392671012358
  C   4.63165195587181      3.79059714993448      0.01187828571494
  O   5.30142303510284      4.76844662310800     -0.28973811984727
  C   5.23104594072533      2.37642925293322      0.02769341926016
  C   6.60895445198743      2.46669270274422     -0.05864664411815
  C   7.47121081218298      1.37006126009173     -0.04070854832737
  C   6.92407097679736      0.11147171343075      0.05156881097473
  C   5.54472798489511     -0.07611330581891      0.12506356498868
  C   5.15374013246387     -1.49260354722580      0.20096140048489
  O   5.93679976116072     -2.41386091653097      0.31567234193941
  S   3.44077413914213     -1.97408738861735      0.10702648542538
  C   4.62364517521830      1.03201949273067      0.12605289797948
  H   2.41395725592106      2.47325794579183     -1.12872039434220
  H   3.17013671278365      4.86098580310045      0.90959307149950
  H   7.02164098657106      3.46159638377060     -0.15273251265538
  H   8.54100455083211      1.51389596745172     -0.10798493841580
  H   7.54598022709503     -0.77422657193313      0.06559825218968
