22
Coordinates from ORCA-job 9226optt
  Br  0.93355727402291     -0.85145882465207      1.69097116331312
  C   2.51170208707435     -0.30161356389934      0.79530797168275
  C   2.60475210192172      0.98054456370616      0.25277520370796
  C   1.44640272190367      1.86994454198045      0.22450792774476
  N   1.37782590795517      3.14140583988639      0.20445006919585
  N   2.53416588418963      3.90680281624473      0.27550188097480
  C   3.62926704048786      3.82587659480057     -0.57443930882087
  O   4.22374405162873      4.83544694140687     -0.89771171381101
  N   4.01177639095465      2.58561497822693     -1.01127794440943
  C   3.81104185728588      1.35448042443343     -0.38978768371176
  C   4.83831251961760      0.42826378016073     -0.51217510251903
  N   6.02482042585115      0.63481273427510     -1.15872689830914
  C   6.67927068155672     -0.51911992091307     -1.01738907661837
  C   5.95353122012244     -1.49174345562934     -0.29081756228600
  C   4.74794626292185     -0.87691470142928      0.03323068707063
  C   3.56683000382007     -1.31734114879984      0.74807409639893
  O   3.43751223500012     -2.43291867348260      1.26195628859620
  H   0.47444374061350      1.38969227649074      0.22608743519003
  H   2.28755023123086      4.87927942560904      0.37992367157927
  H   4.89415708417006      2.61070882606361     -1.51506424592453
  H   7.66861988360338     -0.64209868825730     -1.44032493008974
  H   6.26077039406747     -2.49466476622198     -0.04107192895441
