24
Coordinates from ORCA-job 9227optt
  Br  1.14126083695232      0.11535131332100      0.66399585568101
  C   2.95914887012425     -0.06048131358762      0.08336022620641
  C   3.55879495981323     -1.34328604678879      0.04440270090808
  C   2.80999243034861     -2.58062014216032     -0.12862375886571
  N   1.63987223945332     -2.78553586754193     -0.60580906032517
  N   3.47720663606742     -3.74841235970487      0.28881530525100
  C   4.79234996415364     -3.88406494241049      0.60910793736799
  O   5.30280151344357     -4.95193874536496      0.90744915657746
  N   5.50027417948354     -2.71748598445895      0.55062980468598
  C   4.98338782266754     -1.46785293557918      0.19946262840854
  C   5.85400499372415     -0.43540928377577      0.05747234771967
  N   7.23883014847386     -0.58537690503919      0.31073363856856
  C   8.15462510087490     -0.72818216738343     -0.71837588848148
  N   7.93293820143589     -0.97898989702890     -1.93809027554408
  S   5.33886991243434      1.14297447438361     -0.52068946646474
  C   3.61005498060921      1.19655149742830     -0.03771416574362
  N   3.04635169460959      2.34910049379131      0.09947369285057
  H   1.20611641128551     -1.91268611169875     -0.88027305763408
  H   2.94533459875292     -4.60069076093972      0.20660556452876
  H   6.49536852577904     -2.79571929825489      0.68921311259075
  H   7.60033531093618     -0.13363772930219      1.14016678519741
  H   9.18507574688470     -0.63178756189632     -0.37380968747318
  H   6.92695826354660     -1.03181490579473     -2.11537696290275
  H   3.72704665814556      3.09699517978682     -0.00312643310739
