20
Coordinates from ORCA-job 9232optt
  Br  1.14559989678110     -0.51321624010875      0.41397275883588
  C   2.96116431606549     -0.09535808869292      0.09459017106058
  C   3.46275744576021      1.23082026669226      0.02427726565199
  C   4.88660738034459      1.27785782877977      0.00665052994322
  N   5.59806695109142      0.10712647128192     -0.01074872185834
  N   5.02326052616208     -1.12884220592802     -0.07216629528291
  N   3.74105550661504     -1.17054425929988      0.01335744083904
  C   5.31130548933146      2.59329908323234      0.02942099080575
  S   6.93781644341580      3.17362171698023      0.03558871956491
  N   6.78020759129528      4.81541870536295      0.07762078147473
  C   5.64120815851809      5.40118389944597      0.09519703001825
  C   4.25757183772190      4.84404999590463      0.08117405263885
  O   3.33412445033734      5.66285354781178      0.10647848904274
  C   4.14600360891007      3.41578567482346      0.05061718084706
  C   2.99213080117083      2.56469353630468      0.02557558029744
  C   1.63918577866872      3.08416760374929     -0.10334033378770
  O   0.65267569768992      2.44709962285530     -0.41962388045526
  H   6.59886271131788      0.08867487947512     -0.10207426129200
  H   5.65996255177433      6.48999773880862      0.12565090669712
  H   1.56543285702838      4.16631022252120      0.08078159495864
