25
Coordinates from ORCA-job 9234optt
  Br  1.30719470584231     -0.92635642468354     -0.14229037191052
  C   3.17148294757814     -0.44598976118136     -0.08836405099490
  C   3.56790618073547      0.90204122155516     -0.23475054324973
  C   4.98483014074217      1.08581175070578     -0.22486208190022
  N   5.76341869510232     -0.01967440394213      0.04214616101128
  N   5.29129094709270     -1.31904495132733      0.06959313671720
  N   3.98422978593623     -1.45701088885584      0.02919966389202
  C   5.29544454448975      2.41475052120443     -0.43848378597464
  C   4.05494798209963      3.10783984099656     -0.57516151120520
  C   3.84766918654012      4.54205259212785     -0.91414450486434
  C   4.70248607593549      5.56918897747738     -0.23197659708617
  O   5.65811299611075      5.37699874871996      0.46986724499680
  C   3.01941634527861      2.18415692152883     -0.44935705484536
  O   1.66982555541768      2.48586931351790     -0.58174656397952
  C   0.95271114919331      2.43443737050869      0.60909231028259
  C   0.77148502840563      3.75560062941670      1.30673014939923
  O   1.11378172191826      4.83299153538451      0.90758088368110
  H   6.76051042804801      0.01991782487817     -0.07479952980157
  H   6.27430574807257      2.86759336279986     -0.43458544126345
  H   2.80548870420768      4.82716790773611     -0.73995659467774
  H   4.01556020608912      4.74239711387586     -1.98702469907324
  H   4.39587671289199      6.61471432213090     -0.45970574673150
  H   1.39902603976889      1.73645043965498      1.32854820000654
  H   -0.05718950482080      2.05174833091326      0.40604365344848
  H   0.23718767732388      3.66134770485726      2.27840767412286
