20
Coordinates from ORCA-job 9236optt
  Br  1.09152293951862      0.37516648883972      0.26292612323936
  C   2.97419324601920      0.10176345742630      0.15854471301985
  C   3.52799042254896     -1.19227080123819     -0.07971339103990
  C   4.94953729356899     -1.22007102033880      0.05026575350052
  N   5.55837896070972     -0.01058649125994      0.29074765953891
  N   4.95951680528987      1.20983001751103      0.42242538388493
  N   3.65655391702311      1.19790411725855      0.37770514063153
  C   5.68829948627400     -2.36816553346307     -0.05226274240641
  C   5.08678456661065     -3.64789529598617     -0.29429374896573
  O   5.72731353310061     -4.70249308218973     -0.36364324237284
  C   3.63690559403714     -3.58113892112096     -0.46660541955676
  Br  2.79184289055510     -5.23238546470845     -0.86655268061321
  C   2.90052924048089     -2.42158604826257     -0.38211374469579
  C   1.42865413532436     -2.52643901224561     -0.69588853149344
  O   0.97975401564718     -2.28606623157832     -1.78421612489380
  C   0.57553260162155     -3.00227041988544      0.39529654849755
  C   -0.10068432005028     -3.38097682801001      1.30878314483154
  H   6.56087610719820      0.03201694081879      0.35145549111394
  H   6.76612003251612     -2.34116752672463      0.05694683994313
  H   -0.69862146799403     -3.71916834484247      2.12019282783661
