18
Coordinates from ORCA-job 9241optt
  Br  2.38118160902979     -0.35249667586217      1.79135332509328
  C   3.63395773805664     -0.20505350907786      0.37776509225233
  C   4.44369667630866      0.84451320019899      0.11995030406782
  C   5.25640482774355      0.68493653336627     -1.09132443757260
  N   4.66178710026762     -0.05697127982952     -2.10685283493846
  N   3.85571055752437     -0.96883356803747     -1.87088175822811
  N   3.67127584642279     -1.27399819311522     -0.47400490846166
  N   6.43172666804427      1.19449593529890     -1.38545441480011
  C   7.13654839527707      1.92469932375882     -0.53783607505555
  N   8.43000650041482      2.16476489577201     -0.65391970876233
  C   8.77268485543599      2.94991672495146      0.43129292089436
  O   9.87452672974057      3.35643886845543      0.70980847936203
  N   7.61367799146962      3.27684586715737      1.26199144588238
  C   6.66806812881373      2.66406180500425      0.68964515187663
  O   5.39308365000030      2.87816872734687      1.11094732714489
  C   4.29985652550083      2.11608760170603      0.87170032890688
  O   3.25806265371270      2.50975458211721      1.30791359048457
  H   2.93974354623660     -1.95933083921140     -0.37009382814634
