20
Coordinates from ORCA-job 9246optt
  Br  1.05179238216388     -0.41564510357588      0.05313193518689
  C   2.94305913761678     -0.05581026022084     -0.02639690935549
  C   3.48478023835368      1.26299958648673     -0.03929894037849
  C   4.91635077574889      1.26510618466027     -0.05478910947991
  N   5.51488436853142      0.03195321825029     -0.08236244956795
  N   4.92362964641622     -1.19488383554182     -0.08641354914455
  N   3.61549810803697     -1.17562285384616     -0.04983862038696
  N   5.71629613524857      2.28466558719232     -0.04741309150726
  C   5.18624723702225      3.56852260314712     -0.01763982600296
  O   5.92743590066763      4.53037667386616      0.02144709330027
  C   3.70906955084308      3.70625660038441     -0.03869736096809
  C   2.89976852550603      2.56307311615232     -0.04596869158560
  N   1.54120493297208      2.71317194032594     -0.06608241438208
  N   0.88619313934403      3.87637599057301     -0.07280817077714
  C   1.59131801012467      4.94645325265734     -0.06598713465078
  C   3.06805116285371      5.01004342891631     -0.05296833153086
  O   3.59665610589428      6.11237306868911     -0.05710520565573
  H   6.52245998018638      0.02380184812087     -0.09523818999680
  H   0.94185952901254      1.90660345467093     -0.07163239135115
  H   1.05444513345688      5.88818549909157     -0.07193864176536
