24
Coordinates from ORCA-job 9257optt
  Br  0.44206093355583      0.14241669287178     -0.00951210020764
  C   2.90131323901350     -0.04209628677425      0.45130036593678
  C   3.64192085778251     -1.11679075280591      0.14438825151524
  C   3.26306828427650     -2.54123963210968      0.03993419847161
  N   2.16147898198302     -3.17867591969782      0.12522506621490
  N   4.48347412701473     -3.14543104389100     -0.21020885878141
  N   5.54490533759120     -2.28065079729843     -0.37731779803322
  C   5.06833975048103     -1.09518430725398     -0.15394247537728
  C   5.83147242844326      0.12389075283427     -0.21314591301729
  C   5.26074771358261      1.31328626404749      0.04047189669636
  S   3.56226822589290      1.52373075527422      0.50894612173757
  N   5.96656229563514      2.53717957477453     -0.01754596872308
  C   5.37038273745017      3.77174207705014     -0.29651035783408
  C   6.30757198496600      4.72174881478232     -0.21655721376561
  N   7.49921524084520      4.09158941986124      0.12875936467926
  C   7.32648818185785      2.72091795116870      0.22859235917067
  N   8.17953118338312      1.80143219640905      0.48234579934076
  H   1.40635171731173     -2.51587896611445      0.29435909649228
  H   4.58347177879869     -4.09947330858919     -0.50391764981505
  H   6.88098639942380      0.07679473044791     -0.46509706818547
  H   4.32546582570989      3.84405224790556     -0.53560968816040
  H   6.23423445976359      5.78304024352430     -0.36513294045220
  H   8.40544262154464      4.51882603452907      0.15407512886310
  H   9.09224569369290      2.20277325905406      0.67010038323421
