23
Coordinates from ORCA-job 9260optt
  Br  0.78861434701921     -0.26836795197327     -0.11858321382220
  C   2.68682202507573     -0.13030484780879      0.08134563166165
  C   3.46072513407163     -1.30974553066038      0.02529493053110
  C   3.22580295289008     -2.72068068392061      0.21440288495465
  N   2.21113127969626     -3.45698430548067      0.55027705082970
  N   4.47362705514123     -3.29131514273923     -0.04614868609473
  N   5.50158863972024     -2.35109837904946     -0.18362569956510
  C   4.86519700813459     -1.22002125226943     -0.18289603508373
  N   5.46204347210448      0.01468634140417     -0.38026116058989
  C   4.70095678770479      1.16501711467342     -0.23766792681816
  C   3.33409976212710      1.12546680247391     -0.06098489814657
  C   2.65796100796946      2.42688277680219      0.01038552180375
  C   2.83685526382770      3.50433285049127     -0.81641760188060
  C   2.10492103065832      4.65455577328528     -0.41818571804660
  C   1.37498224265043      4.43792360457560      0.71144859059477
  S   1.57938373822537      2.84095339555399      1.29197442782816
  H   1.39455141158654     -2.86837855642701      0.67093660475736
  H   4.71733934037508     -4.15890485648166      0.39985014158734
  H   6.46467493141751      0.06183110183689     -0.33172189949272
  H   5.23978099487957      2.10042040803430     -0.24017539722900
  H   3.46113113306914      3.44913603453644     -1.69705499654831
  H   2.10471196861787      5.59039357617176     -0.95979416937030
  H   0.70909847303759      5.12120172697129      1.21360161813943
