24
Coordinates from ORCA-job 9261opt
  Br  2.37529605975522     -0.39824319904813      2.94442593644670
  C   4.15581729311327     -0.83585390987521      1.62479610343660
  C   3.95907590078216     -1.37270264014407      0.38923090066090
  C   3.21158837401457     -2.50985370873892     -0.12725677291755
  N   2.37547696351609     -3.34935825778766      0.36745412811281
  N   3.61085216986491     -2.52617004081947     -1.45608183822710
  N   4.40163819956256     -1.45852406142161     -1.85017464129403
  C   4.61466980075173     -0.80285624676777     -0.75543594890148
  N   5.36952389342714      0.35900463707171     -0.65218484576545
  C   5.47483211799592      0.82076828421938      0.52526367370116
  C   6.19557178123150      2.09734342612229      0.83981894257709
  C   5.24556686805580      3.20300561092605      1.20316612838853
  N   5.48757945833298      4.44096804402561      0.79818992868950
  N   4.47445411119875      5.16436298395600      1.28797745971955
  C   3.58972402786917      4.42134858168389      1.98709464588573
  C   4.05405374649712      3.13167246781397      1.96215748215022
  O   4.97448234511335      0.26516222627342      1.66755102956433
  H   2.22888440763221     -3.12779241726387      1.34883141549324
  H   3.12781759640584     -3.04860325998133     -2.16377186710358
  H   6.77538065809898      2.39477073818440     -0.03018604371193
  H   6.87510835865484      1.90859266500822      1.67527576493471
  H   4.43575832205799      6.14784802278534      1.09140725223391
  H   2.71162291335481      4.85706573273479      2.43290552864407
  H   3.60122463271275      2.25904432104284      2.40554563728203
