21
Coordinates from ORCA-job 9264optt
  Br  1.12049687190713     -0.42708200125452      0.24314681601033
  C   2.98336489459466     -0.13535063987605      0.08490715206761
  C   3.55099000996212      1.07976895549656      0.03927044608037
  C   3.09620579031600      2.47030150276553      0.06155923361836
  N   1.94664680832632      3.04765229418403      0.10191822906377
  N   4.28703014403059      3.14452974777053      0.02005849708506
  N   5.43660546436731      2.36224690916063     -0.10826724415353
  C   5.01752680654685      1.13152151863094     -0.07946237336226
  N   5.78996847857595      0.02177132556322     -0.14393963004453
  C   5.15157889267239     -1.14513358210382     -0.10031762854484
  N   3.74383991744788     -1.24196162891298      0.01801010035265
  C   5.80357646170620     -2.37959986157490     -0.16133483044514
  N   5.15161215623699     -3.54074118458478     -0.11677158389837
  O   6.07692636460796     -4.60049651065233     -0.19776470773440
  C   7.37390102210768     -4.23765974061125     -0.30496018208434
  N   8.33857803293962     -5.05092464422048     -0.39381412750855
  S   7.54358274269084     -2.49018122704717     -0.30415756490581
  H   1.20891213524083      2.35377393196830      0.13575421621036
  H   4.35590960582737      4.13386861337243     -0.12923255809885
  H   3.34701404633218     -2.17055602106660      0.05108277027851
  H   7.98273335356305     -6.00474775700730     -0.37268502998640
