20
Coordinates from ORCA-job 9266optt
  Br  1.06766177752602      0.34817509248432      0.01031757866406
  C   2.94622361568003      0.16978414509176      0.02420320791586
  C   3.59368058858441     -0.99238846844130      0.02395910930190
  C   3.24320164639347     -2.42027382654835      0.03462066538541
  N   2.14272468343594     -3.07185919998758      0.10662432103230
  N   4.48038751927997     -3.00855072298548     -0.04973112917260
  N   5.57599504191903     -2.13609271229230      0.02208458639023
  C   5.06596051885140     -0.93967227157113      0.03375255799892
  N   5.72331485274696      0.23258067746756      0.04837866715920
  C   4.97540991433902      1.33369272716744      0.05574916121173
  O   3.55814158481172      1.34183335646381      0.03294621018758
  C   5.53456022397140      2.61251090013386      0.07967492272231
  N   4.93436205867944      3.79360209155143      0.08949458160916
  O   6.00973574394266      4.72765489527784      0.11615372923784
  C   7.20293924890076      4.09317317840704      0.11815552193672
  O   8.27630294710973      4.64272354661059      0.13515212862625
  N   6.90975551088563      2.76469404750268      0.09714649819211
  H   1.35817185234997     -2.43036304342447      0.14497029037578
  H   4.63186942642390     -3.97379797647637      0.18032577011691
  H   7.56760124416842      2.00457356356862      0.09102162110832
