21
Coordinates from ORCA-job 9267optt
  Br  0.93137366031520     -0.33980858274558     -0.03713091771829
  C   2.80792997438808     -0.10079779921021      0.04251572683611
  C   3.40381723738077      1.17304839803067      0.06187427353915
  C   2.96497364478297      2.54123011411737      0.06146550768890
  N   1.81739657116618      3.14141367514904      0.04698886500356
  N   4.17713652466311      3.25661740454983      0.08491725010842
  N   5.31165639797728      2.44862830754417      0.10620794902137
  C   4.81844843037448      1.24967244966245      0.09303234035434
  O   5.63512134827652      0.16885951010614      0.11065186348178
  C   5.00943164234128     -1.06251854886987      0.10108417704572
  C   3.65552035863728     -1.21708014775483      0.06508211899647
  C   4.34278424892804      4.61114810398871      0.08781419838367
  C   3.42293728212143      5.63014413998144      0.08135295291527
  N   3.96392663282877      6.89153423629451      0.08408751485088
  C   5.25528766308048      6.85129395035388      0.09278228437497
  S   5.94284599719792      5.26704847051342      0.09872280832092
  H   1.08161024431894      2.44353392722707      0.03256272589972
  H   5.72012035507247     -1.87151953342476      0.12590714648059
  H   3.25534175759098     -2.22099516577140      0.05550075570261
  H   2.35921021425659      5.47119237735503      0.07376969372901
  H   5.88812981430123      7.72735471290291      0.09681076498484
