23
Coordinates from ORCA-job 9268optt
  Br  0.85212455115752     -0.37544575193436     -0.83287096087399
  C   2.67781064171423     -0.10058797428854     -0.35933922588015
  C   3.54811204163100     -1.17681275170393     -0.16402122448359
  C   3.52940977763947     -2.61771071090784     -0.17886586699040
  N   2.62464374022818     -3.53330304900360     -0.31968392541000
  N   4.87356469537471     -2.94586821890772      0.02151946310849
  N   5.68200122621892     -1.84890646397869      0.33995680954517
  C   4.88859905014743     -0.84869815457888      0.17857656320356
  O   5.30641290870900      0.44449749576107      0.30272286332668
  C   4.32152639440102      1.40078638041475      0.09035543283452
  C   4.87887246203005      2.77710599897956      0.17065929772174
  C   5.46581810644595      3.11379691061755      1.50521603616158
  N   5.00831024241436      2.87589667046973      2.68558784050910
  C   5.94261295448024      3.42411048587368      3.54665667819441
  C   6.93363271041772      3.97916604504264      2.82377677682663
  O   6.64183419948166      3.78788825096267      1.51040162974989
  N   3.08561914663531      1.15666423647068     -0.23238932838583
  H   1.72330008927215     -3.09393453921291     -0.47467535383296
  H   5.11069489195704     -3.81627987246968      0.46541623971432
  H   4.07253914475262      3.47422252873866     -0.05799586317194
  H   5.67372068197758      2.91529952616811     -0.57081980510161
  H   5.83366843116745      3.37173697065524      4.61643376458091
  H   7.84717191174626      4.49537598683179      3.05538215865345
