22
Coordinates from ORCA-job 9270optt
  Br  0.98993210521872      0.26559161888951      0.01976503877438
  C   2.89457706795870      0.12868438526886      0.04126495473116
  C   3.50953123360878     -1.10740350716621      0.08554831334632
  C   3.15995734288462     -2.51539486401210      0.10760140653812
  N   2.06716586467852     -3.19264980275599      0.03585906053212
  N   4.40329194194543     -3.12619461927453      0.23763006428729
  N   5.49035948548433     -2.25246147249822      0.13101615857857
  C   4.93911506917594     -1.09493754532896      0.08509104112518
  O   5.64547979686108      0.06249351514408      0.04911981168082
  C   4.89557230754999      1.21400394883651      0.01566127171122
  N   3.56174827912576      1.25862014840844      0.01256276012980
  C   5.63597023729470      2.42551114711392     -0.01839832433615
  N   6.92182898911617      2.58277670605211     -0.02814569624734
  C   7.14884832635231      4.01627345767285     -0.07110670748671
  C   5.77606217335589      4.68344414512383     -0.09053700066606
  O   5.50303856547104      5.86362633728491     -0.13222380863538
  N   4.91217409405015      3.63173761381534     -0.05021686365153
  H   1.27605778968235     -2.56138658394750     -0.03246225579202
  H   4.54912194673562     -4.07182671179756     -0.06896680123728
  H   7.71552360088240      4.31191905656509     -0.95911581246339
  H   7.71423010733491      4.36393112591985      0.79894435582521
  H   3.90541367523255      3.67264190068576     -0.05289096674430
