20
Coordinates from ORCA-job 9271optt
  Br  1.38279402059880     -0.96047609997072     -0.50212834641301
  C   2.97478476159287     -0.22200396511579      0.36289052937719
  C   3.32652303082603      1.11025296386110      0.17415487981290
  C   2.63789602528192      2.37447988509604      0.16803700858025
  N   1.39939383857415      2.73854511697380      0.21876953318649
  N   3.68815089247667      3.29615269643449      0.07171959145655
  N   4.95227671145468      2.71641058674893      0.01175824161871
  C   4.68249585202460      1.45601541441552      0.06777610260445
  O   5.67051336404657      0.50958974787371      0.02736325929504
  C   5.32854761123664     -0.79564645817264      0.07496242172568
  O   6.16989534278618     -1.63652472021215     -0.00269860512237
  O   4.03783663362448     -1.12889148535557      0.23875210803821
  C   3.53209885392035      4.66146024112485      0.05332073899964
  C   2.38268056130060      5.38806788257391      0.05879071433044
  O   2.75082130075722      6.71204461102715      0.04338891288944
  C   4.08596280016876      6.69271534007548      0.02947605306531
  N   4.61642213798517      5.52229256562320      0.03435167029349
  H   0.81697124531278      1.90885257371443      0.28116543965016
  H   1.34340603231758      5.13369630615527      0.07521684018896
  H   4.59452898371390      7.64296679712893      0.01793290642246
