19
Coordinates from ORCA-job 9272optt
  Br  0.80204888201417      0.06545133875432      0.37858094099711
  C   2.67338658166507      0.03927641077270      0.10932528922503
  C   3.35775374437706     -1.16273790914447      0.12806161547654
  C   3.05493020429622     -2.57525905976761      0.26178196108290
  N   1.97805100532396     -3.27674426002968      0.35269260346195
  N   4.31948522617340     -3.16154535081583      0.27185587847134
  N   5.35482137678424     -2.26808101592178     -0.02317999223245
  C   4.77276910689855     -1.12357972912580     -0.05423970213049
  O   5.46772132906108      0.02576267204635     -0.23384957558598
  N   4.77807240878565      1.24143657974366     -0.22014882948664
  C   3.45628340155286      1.18766131925169     -0.06527622915338
  S   2.77718140395074      2.82013624392716     -0.05689204610380
  O   3.81040261674518      3.78845795330414     -0.23872999621392
  O   1.60428867651184      2.86915413583754     -0.87661647625639
  C   2.24153540401105      2.97653765391290      1.58907277849726
  C   1.88002879325286      3.08533312388645      2.72593006201145
  H   1.16926889659443     -2.66546148603732      0.35041674483903
  H   4.43693647034030     -4.10358512090577     -0.05906875027327
  H   1.55803447166126      3.17178650031134      3.73628372337372
