20
Coordinates from ORCA-job 9273optt
  Br  1.10607313169878     -0.13698683448383      0.02385677775302
  C   3.00570877978410      0.00844755391822      0.04456215148423
  C   3.61497166928932      1.27156885164018      0.04894928911682
  C   3.10793921161783      2.62093569032336      0.04888249063108
  N   1.95945944610606      3.18219530781060      0.04782331461789
  N   4.30777213161252      3.41133159415433      0.05234161070213
  N   5.46424565644736      2.64327144975592      0.05729096564329
  C   5.03404396460619      1.41945070538659      0.05570870007970
  S   6.18287040655683      0.10862881481601      0.06120150768766
  C   5.09626486778981     -1.27873220591693      0.06142289582358
  C   3.70915292565268     -1.18275008882810      0.05157021094225
  C   5.75445467647519     -2.51916757863613      0.06957648328898
  C   6.35033323189122     -3.57008783093441      0.07702122949539
  C   4.44458756484106      4.76096668030227      0.05030960520149
  O   5.49780771837179      5.35441956281581      0.05192977573074
  C   3.20555452819064      5.57373895109786      0.04574958182685
  N   2.41196436965863      6.40013607726885      0.04214178171235
  H   1.22158817946706      2.48883579747236      0.04583357656305
  H   3.15835069284780     -2.11365789878402      0.04947620005404
  H   6.86785684709506     -4.49754459917895      0.08335185164546
