23
Coordinates from ORCA-job 9275optt
  Br  2.05282395498192      0.50080000750704     -2.62895715957909
  C   3.23078901725563      0.23069503787808     -1.15541812028224
  C   3.50907178358703      1.27319171219091     -0.25695848552867
  C   3.07329229819634      2.65356066820179     -0.14686622069940
  N   2.26659258515069      3.44110505531777     -0.79400446709810
  N   3.76838599453189      3.10554608630819      0.95840969399329
  N   4.52183721584459      2.15434869541321      1.60342201599956
  C   4.37601390541137      1.09357635699985      0.86449221505682
  S   5.24483878283931     -0.38383387855355      1.26720901780563
  C   4.64133687145768     -1.40189369051871     -0.02598331863850
  O   5.20015736210202     -2.67890647270764      0.00492034018266
  C   4.58562307428978     -3.61587484515152      0.75306917032156
  N   3.39787823785910     -3.46521810209012      1.29565453023544
  N   3.17587360320517     -4.63290413999630      1.92384826111498
  C   4.19049521538181     -5.50842988615098      1.78642468998539
  C   5.14561071948046     -4.88653980230136      1.02287425435011
  C   3.78537636550997     -1.04667037330462     -1.02604177899967
  H   1.86050050418625      2.94975947579831     -1.57975746192298
  H   3.56543400977880      3.97315435423375      1.41867452840855
  H   2.32079470431123     -4.74990706885693      2.43523643942098
  H   4.15811836483623     -6.48744524711670      2.23459316597602
  H   6.09967945638475     -5.26307184844933      0.70142125188781
  H   3.53447597341783     -1.81604209465108     -1.74526256199016
