21
Coordinates from ORCA-job 9277optt
  Br  1.27598090924431      0.29256658638898      0.44502464933332
  C   3.13685965960936      0.05995862265771      0.18390434046155
  C   3.79112665034616     -1.15800102619948      0.05813726291780
  C   3.09740555602588     -2.45402920767439     -0.13721152386669
  N   1.89745980295957     -2.71875844200612     -0.48669118462882
  N   3.90351399963368     -3.56382453183180      0.06374607545807
  N   5.21769010821188     -3.62648251007041      0.20505713064018
  C   5.85026790468827     -2.49068509447360      0.16548198749548
  C   7.26116987961928     -2.66748654182783      0.40148956515085
  N   8.37422389106470     -2.86181689068065      0.60415596564211
  C   5.21845091891409     -1.20139129837923      0.02583420276393
  C   5.93113361815233      0.01947028784926     -0.06010877364138
  N   5.21450043397546      1.18763709996558      0.08700547062608
  C   3.85808438238543      1.32071550035561      0.24367945234988
  O   3.35353373888035      2.42383161172605      0.39257602814930
  C   7.30854313486541      0.24058793074464     -0.36930998847581
  O   7.78317364997586      1.38536629541357     -0.42757189967012
  H   1.33780231067624     -1.88410357093889     -0.58623703129553
  H   3.42978948146453     -4.45039042053901     -0.01284297885693
  H   5.76439961379894      2.03738428503288      0.02405091410669
  H   7.93389035550820     -0.62654868551283     -0.59316966465997
