23
Coordinates from ORCA-job 9286optt
  Br  5.97465010071872      2.59980857507226     -0.46915382519799
  C   5.98131608926291      0.77712643601269      0.03840736037527
  C   6.28435549939239     -0.22560259364449     -0.89302904241817
  C   5.98471801371629     -1.55944297390374     -0.39900461022749
  N   6.03483860045573     -1.88529251869923      0.83156484236150
  O   6.44640959115345     -0.88104847609022      1.70167453208571
  C   6.58950583415561      0.42995620623077      1.29826191923779
  C   7.56944401764046      1.13737707467538      1.91489839918240
  N   8.72861991647649      0.39821008603982      2.30424456977085
  C   9.21953271691684     -0.48153153387872      1.33197842399834
  C   9.13380062758619     -0.35058296577970     -0.01196567174947
  C   8.85353472052287      0.85647425691258     -0.87773722228249
  O   9.52505979532488      1.87640928987808     -0.72419208506419
  C   7.97050637324735      0.69924345309394     -2.04004494895669
  N   6.89996589622770     -0.09255677803406     -2.08399637983166
  C   9.82776750226853     -1.67035128772990      1.86754303954431
  C   10.34805349492214     -2.63665546968893      2.35507012218846
  H   5.75666269551734     -2.35916756126739     -1.09628887792288
  H   7.69571117304343      2.18662378914531      1.69984488420584
  H   8.76319442495095      0.01054877671093      3.23466456298780
  H   9.44859045155095     -1.21963673968312     -0.57961487620915
  H   8.27733292062872      1.23376333087132     -2.93547815302608
  H   10.79742954431986     -3.50467237624356      2.77135303694798
