22
Coordinates from ORCA-job 9290optt
  Br  5.36714238683932      1.13773134485117      2.81298455467654
  C   6.74780490632413      0.68668173339423      1.56602858825703
  C   6.42096647765362      0.01311927354410      0.31137164269985
  C   5.70376035908727      0.93397837919252     -0.55420499963775
  N   5.83989869422088      2.21272538879288     -0.47200267240111
  O   6.89167409074892      2.68617772239750      0.34616909308830
  C   7.60029238975243      1.80498501291606      1.13615776725888
  N   8.84342333498402      1.99433154103723      1.23639938644370
  C   9.81182715061502      1.40140449729121      2.02017229063011
  N   10.74575275768136      0.59392847124052      1.69113722845587
  C   10.78128107031364     -0.02874702765693      0.43204475343078
  C   9.75833245846312     -0.73532051367196     -0.07008576679223
  C   9.50095643029306     -1.17216488463583     -1.49127617082883
  C   7.99365331651234     -0.90579027819221     -1.57746078848476
  O   7.30483504840341     -0.91985275864926     -2.56387092627276
  C   7.56745732204106     -0.65994021198603     -0.15120581520226
  N   8.58324442621571     -0.83700825312583      0.66351423032938
  H   5.00288896472243      0.62933899889762     -1.32460207864582
  H   9.87640047505842      1.82358101961532      3.02483040290060
  H   11.71334116781158      0.06871294317719     -0.11352877946589
  H   10.04212959335837     -0.63057013403994     -2.26483336842542
  H   9.66193717889976     -2.24530226438955     -1.62673857201422
