22
Coordinates from ORCA-job 9292optt
  Br  9.80823506455748      2.11494341122045     -1.36120472608889
  C   9.35268416923827      0.80269430028047     -0.08769060977559
  C   8.21179351212997     -0.05260295482504     -0.28111216865864
  C   7.72119784653847     -0.60490947139025      0.89687037296381
  N   8.32359039399041     -0.58034094312793      2.07124826088755
  O   9.68487237502697     -0.19299066882759      2.01103264926182
  C   10.14219924883235      0.53196158327172      0.97394615415671
  N   11.50367545229580      0.77663002169935      1.09400850749780
  C   12.17044298373172      0.69264965807324      0.04953665794398
  N   12.85954783405605      0.70011621675453     -0.92236114517547
  S   12.25702234062561     -1.36252136568975     -3.52627258885594
  C   10.60251094775344     -1.14767341131288     -3.27785477091090
  N   9.98598428170205     -0.97378526497624     -2.13515384515578
  C   8.64234954923631     -0.75489912687972     -2.38709100169355
  N   8.34883002093101     -0.99661656056632     -3.71645249945663
  C   9.60588977859944     -1.10449050899413     -4.43153122800335
  N   7.73961684983116     -0.39406203162953     -1.53087098823136
  H   6.76896007606553     -1.12592319888288      0.89949857695319
  H   12.93752784921105     -0.06121000142895     -1.61814602065997
  H   7.56678681663152     -0.49563744085753     -4.10428637462042
  H   9.81243682123154     -0.23804785149799     -5.06526651108948
  H   9.67684578778351     -2.00728439041300     -5.03984670128884
