25
Coordinates from ORCA-job 9293optt
  Br  0.91519416339826      0.11137497267828      0.46243004775641
  C   2.69543151505203     -0.26039715023618     -0.03545625167075
  C   3.62742616792183      0.72403687956841     -0.24016491590924
  C   4.95457669324002      0.38250494863742     -0.49866207691818
  N   5.45489708173002     -0.84340928612350     -0.58475437427618
  O   4.46356396843887     -1.84615140459616     -0.41476912866198
  C   3.13617666039487     -1.62721079249994     -0.09966709851084
  N   2.39524183010948     -2.64627017081444      0.10630615264552
  C   5.75818332432909      1.61047559046044     -0.58462652985258
  O   6.96239747424383      1.76284796161917     -0.61208821039549
  N   4.85444414153143      2.68065115908078     -0.56656181440280
  C   5.20299508488925      3.91445091811422      0.12917985141489
  C   3.96716622082148      4.23222592253599      0.99231906226706
  C   3.27906870465242      2.87680607641679      1.16250410044771
  C   3.50173570900919      2.22610094218055     -0.21918265992173
  C   2.51492828993642      2.73137583192434     -1.19068638274416
  C   1.70892288803969      3.16605146023182     -1.96383780413888
  H   2.96158908292468     -3.48576146852463      0.00170325596997
  H   5.42700431370994      4.71958711281113     -0.57209603791473
  H   6.09856165671845      3.73479076612726      0.72879458058921
  H   3.30233499797491      4.91471612093436      0.45998131543636
  H   4.23691467822752      4.69455481413190      1.94157410052279
  H   2.22650208010696      2.93694079372310      1.43041539323716
  H   3.80170165048396      2.26215015680065      1.89858350421031
  H   0.98904162211538      3.52655784481819     -2.65723807917984
