20
Coordinates from ORCA-job 9294optt
  Br  2.29467381236583     -0.01141016228982     -2.17594804879964
  C   3.46293818632186      0.20785738080293     -0.72738808647933
  C   4.27121717803558      1.27916858966185     -0.54720983255436
  C   5.11643062048479      1.23579136112294      0.63865814338458
  N   5.25098732864366      0.23446121919260      1.41869503224218
  O   4.47979709420974     -0.86848829363899      1.16873428203820
  C   3.50194671601949     -0.91434757176946      0.20352627540075
  N   2.73647504887666     -1.91987838404747      0.15627836421515
  N   5.84317204702674      2.37848010742100      1.03910541161175
  C   5.68450567071599      2.89083090110927      2.31515141858793
  O   4.84274517062437      2.55994192509472      3.10678039231715
  C   6.98394971079035      2.85867829736929      0.26327960248362
  O   8.00060520209541      3.09374495402029      0.88453913157006
  N   6.81947673409237      3.09806400606434     -1.05166053626065
  C   5.67016345837688      3.03980903788292     -1.69624502101320
  C   4.38619339306078      2.42782778388541     -1.47647343637180
  O   3.42119502119062      2.76837244515918     -2.18854589072869
  H   2.97446758189428     -2.56455765949662      0.90800151591970
  H   6.41764434077044      3.68469479475734      2.50171071350243
  H   5.66441568440407      3.56895926769826     -2.64898943106581
