23
Coordinates from ORCA-job 9296optt
  Br  2.01199270114167      0.01287044229619      2.10209231789467
  C   3.14848647511822      0.11883104184274      0.58333111492835
  C   3.86904987282489      1.27760662485245      0.22654919558172
  C   4.92524298807992      1.05654262879616     -0.72274489304578
  N   5.17286104350254     -0.06781941353846     -1.31221603466207
  O   4.35689330596358     -1.15194157862368     -1.02087654826786
  C   3.40953157990645     -1.14813597110766     -0.02032565734074
  O   2.89127932717129     -2.21140389353939      0.23341800529354
  C   5.89464386969724      2.13152530338665     -1.11539524377206
  N   6.32961204864374      2.17170081744496     -2.31142628969326
  C   6.37662863304006      3.00691150016581     -0.03988255092388
  C   5.59537278836437      3.63399215891291      0.85800720630271
  N   4.23684310255993      3.62576460778565      0.96372434961861
  C   3.48070320684137      2.61866377451822      0.63401618646122
  N   2.10886799717286      2.82014704981517      0.71414539678189
  C   1.40800012262120      3.87643346277978      1.27213570440215
  N   1.81937966785939      4.96928807325780      1.75922404721568
  H   7.02504238756774      2.91626994481509     -2.38649740125232
  H   7.43354919683826      3.24868117262894     -0.06037174734334
  H   6.07411197168271      4.33411382016586      1.53758771367730
  H   1.54695394622045      2.02945189412980      0.44675980875522
  H   0.33567710267935      3.67495890709895      1.25087156313442
  H   2.83627666450271      5.00354763211602      1.69687375625382
