20
Coordinates from ORCA-job 9297opt
  Br  2.76662459608758      1.90241767218825      1.81913509824927
  C   3.69697023500253      0.90488539792966      0.52964024820161
  C   4.75395592742689      1.38155079835396     -0.13742570809916
  C   5.39089783043973      0.47912820409965     -1.13153413054740
  N   4.96088843787170     -0.69378221557283     -1.42294514122262
  O   3.78881834729669     -1.09860015497870     -0.78575185937155
  C   3.16800885978601     -0.42848024286279      0.22135235972495
  O   2.22711452262006     -0.95209859970397      0.75243113570925
  N   6.52010229872849      1.01817213180371     -1.73577737937161
  C   7.32519604330012      1.45542232874720     -0.83092390757279
  N   8.09529541189189      2.61276653500933     -0.92082062743678
  C   7.77604113666263      3.44928792953999      0.21805797040078
  N   8.48063012926427      4.40623200712430      0.63243293276425
  C   6.49375292081053      2.95296643685775      0.92140431214046
  O   6.47544607787236      2.67146005404172      2.11169385283959
  C   5.40247543316338      2.73823700970182     -0.05865695237630
  O   5.25001239095857      3.50574743366306     -1.01096135504543
  H   7.43701540060867      0.96467560250779      0.13823018570502
  H   7.95600406844734      3.09604329872285     -1.80260570990804
  H   9.32674993176020      4.49296837282716      0.06802467521653
