25
Coordinates from ORCA-job 9300optt
  Br  2.04566259799120     -0.33732284540838     -1.81248927709080
  C   3.50949331516082      0.07991071014852     -0.70236758676690
  C   4.59332359987774     -0.80404530150713     -0.63294859400685
  C   4.99440289101490     -2.02271179009995     -1.20222234518706
  N   6.19493191978462     -2.42750824960874     -0.81772716931961
  O   6.66379075618777     -1.42131203274346      0.07817931566545
  C   5.68978014326881     -0.47750822389577      0.20174749517393
  C   5.74611107497813      0.65674559255943      0.93310314265376
  C   6.92637405431532      1.09784082269440      1.72979124036358
  C   7.93532082939836      1.90066663039507      0.92052454005375
  O   8.35679837871279      2.98400659240434      1.25568804025478
  N   8.34746307760381      1.26169418321794     -0.23239643871134
  C   9.28642411282612      1.79639632982109     -1.09537570389590
  N   9.71775282775041      1.27827730944708     -2.16620209815275
  N   4.66985679840240      1.54417663658103      0.77682518267996
  C   3.50045869869165      1.30976524779192      0.02372720618090
  N   2.52034913374407      2.15948771774691      0.00321412968375
  H   4.44216319598788     -2.63881267597979     -1.89567827584775
  H   7.44677825995556      0.21268093071108      2.10691323593406
  H   6.64127721279708      1.71602657981565      2.58274316542895
  H   7.92743434866774      0.36333171737479     -0.45141417123995
  H   9.65681268568831      2.76058975731122     -0.75951323799583
  H   9.27175278737437      0.37836329773307     -2.35266068740152
  H   4.61429638513022      2.31570304067686      1.42112603259063
  H   2.73819091468965      2.97155802281278      0.57541285895276
