23
Coordinates from ORCA-job 9301optt
  Br  1.03644801834267     -0.19923047237851      0.66537476194269
  C   2.81870971848150     -0.27338270549300      0.04077639081517
  C   3.47213921669102      0.87872859525949     -0.41431386617071
  C   3.08071233562649      2.20957916206648     -0.68270344170052
  N   4.06849905750703      2.98779472391773     -1.04117035092766
  O   5.22176697725445      2.17708406971165     -1.02406884340623
  C   4.87113737710170      0.90913055262164     -0.67618228299222
  C   5.72977878873691     -0.14441383658232     -0.58963055371396
  N   5.15617102049932     -1.41176216865078     -0.24581415502573
  S   3.85896642117195     -1.43573924657283      0.79452035962772
  O   3.29904347976009     -2.75684723983279      0.70205162007433
  O   4.33706870374372     -0.97622217145119      2.06873332797522
  C   7.18961298883786     -0.09740375008199     -0.77125796843577
  N   7.84068597003628      0.89748444285830     -1.59717106839405
  C   8.01142610642267      1.01230079546524     -0.14555494441727
  C   9.35637727786690      0.67967869832959      0.34812773780735
  O   9.81969068211156      1.04020549899116      1.40021604930861
  H   2.08966252396050      2.63016020047374     -0.60356184344727
  H   4.92992454355404     -2.00692775750517     -1.03862663940285
  H   7.65407751684337     -1.07714703852956     -0.81460854322878
  H   7.16106149671745      1.59096603085505     -1.89669862160077
  H   7.45849863101897      1.76927399784887      0.39643248052565
  H   9.93354114771345      0.02668961867917     -0.33886960521296
