22
Coordinates from ORCA-job 9304optt
  Br  5.98293089400727     -2.20602579336529      1.90629909695171
  C   5.48050978759312     -0.87763633323082      0.66177976847929
  C   4.31821511050226     -1.08899502346142     -0.06891346312693
  C   3.29293330839179     -2.04001784264460     -0.22504570711540
  N   2.38412593048240     -1.66292659243431     -1.09174959904972
  O   2.78310276014517     -0.40007641685173     -1.56600989595506
  C   3.94152940964126     -0.06061257159882     -0.95779199961747
  N   4.55646533941180      1.03700405696519     -1.21538399366903
  N   5.75574284281608      1.19099245434915     -0.51856789088601
  C   6.21197500984102      0.33228636508491      0.52527661238960
  C   7.22000923267928      0.65979470012883      1.41445471635334
  C   8.20454715149568      1.70003473800653      1.41633424784674
  N   8.78994586370048      2.08116788439488      2.49562086763458
  N   8.66616787213491      2.22514338762175      0.17557526882733
  C   7.86234671827046      2.48053450430355     -0.75753567045153
  C   6.37048735960257      2.40111104761461     -0.81969104279987
  N   5.71076366604856      3.37748878688002     -1.30501156597642
  H   3.18050906197995     -2.99363175646804      0.26834449679624
  H   7.28754471499978      0.02475211706607      2.28337135828564
  H   9.53804432558182      2.72520347019189      2.24351451285034
  H   8.28157693569320      2.89126255696845     -1.67921212160509
  H   6.35752670498107      4.12314626047915     -1.55665799616228
