22
Coordinates from ORCA-job 9307optt
  Br  0.99851606754450     -0.01487659996790     -0.27901798720975
  C   2.87769903761698      0.15372209636428     -0.18071562563886
  C   3.71816709245504     -0.96147361476856     -0.13628018382864
  C   3.20341250685650     -2.29659062433236      0.06673732712882
  N   3.86551764913438     -3.37465437328626     -0.07628667567522
  O   5.16277744137228     -3.19727758720140     -0.58018282379414
  C   5.85988209720202     -2.06520751200332     -0.23149474695362
  C   5.13982871024708     -0.86472933763028     -0.11947381882982
  C   5.70255447374687      0.46525479915258     -0.00676219000150
  N   4.79368340682698      1.49565604127323     -0.06647569185228
  C   3.39597885483311      1.46941811854097     -0.16694125801605
  O   2.79627998025730      2.54196198012176     -0.21375071138667
  C   7.02293404205882      0.81852554940025      0.13854891430088
  C   8.15915001446726     -0.01795238774707      0.23955382745384
  C   8.28483334049270     -1.36036341617968      0.15609805787231
  C   7.27958344850104     -2.38828507282692     -0.09623274615868
  O   7.65366505287743     -3.55706119983868     -0.21058908515412
  H   2.19079515384166     -2.43381745108729      0.42658876914916
  H   5.15452232913918      2.43721259213332     -0.02660749590784
  H   7.21532804142705      1.88369999524336      0.20581189837992
  H   9.08648285308022      0.52287834671144      0.40679609860502
  H   9.27440840602126     -1.78904034207142      0.25967614751725
