21
Coordinates from ORCA-job 9310optt
  Br  1.72281129679001     -0.10175742570268      1.09586651347773
  C   3.55191750697968     -0.48389410725827      0.74894971635535
  C   3.96046321390837     -1.55779317016056     -0.03073643232238
  C   3.26625290875816     -2.65226508690817     -0.70426664899730
  N   2.04922385474874     -2.98158525462617     -0.85740530242484
  O   4.23800874860923     -3.45885262560919     -1.25499384172767
  C   5.47408713890709     -2.90715789962406     -1.00685048402029
  C   5.34259666322703     -1.76876132864836     -0.24766508670779
  N   6.29590656229676     -0.98288716564263      0.46060299989372
  C   5.70339245182517      0.17745567354019      1.05296087145814
  N   4.43807188094454      0.39070478316019      1.21998106502493
  C   7.63169880849632     -1.15525138334154      0.80632783958823
  N   8.67474565162514     -1.84504207465521      0.47758963971600
  C   8.79724707720798     -2.67197734093019     -0.65637898496216
  O   9.80784604907195     -3.29061825366868     -0.88643011528476
  N   7.65714476312375     -2.56424242339744     -1.42929676013794
  C   6.73381867893714     -3.46039435820282     -1.27498175586550
  H   1.45095433573963     -2.29719098358867     -0.40775027123703
  H   6.41161147903963      0.90830103305417      1.41246102633342
  H   7.83953214681993     -0.44866180965990      1.60862687651567
  H   6.94066878294367     -4.52812879813001     -1.13761086467553
