21
Coordinates from ORCA-job 9313optt
  Br  1.54350148388166     -0.29554709173789      1.23957172599804
  C   3.01468159319382      0.06916379675813     -0.07041271050542
  C   3.70426976331736      1.28902862615600     -0.03205515490427
  C   3.01391561304354      2.56947709331740     -0.09646633997608
  N   1.77716664909914      2.81069762088762     -0.21765778533216
  O   3.79810338396495      3.72660870667003     -0.01376396938576
  C   5.13024447901486      3.65226241242685      0.01732936650804
  C   6.05366858889046      4.65458325313187      0.08607259481590
  C   7.35209180827338      4.01593223155814      0.11444641947584
  N   8.55313951878583      4.43613675077649      0.17815739094632
  O   7.15814764158991      2.63876524837462      0.05829408529003
  C   5.80793502496212      2.42057344259885     -0.00125615573466
  C   5.12342669682190      1.25284479409650     -0.00189037904447
  N   5.74073752538334      0.01369158416585      0.05610965721988
  C   5.08619385170347     -1.18019452022706     -0.06408729514755
  O   5.64530751037119     -2.24351246673490     -0.08159042661909
  O   3.74629298848179     -1.10527370034625     -0.19540263288084
  H   1.26070762092029      1.93856748828269     -0.27492524842032
  H   5.89086925332710      5.71731210987045      0.12306041643898
  H   8.54747730533605      5.45080322986574      0.21247221374297
  H   6.74612169963776     -0.03792060989118      0.10499422751462
