29
Coordinates from ORCA-job 9315opt
  Br  0.71210822925015     -0.33272576095719     -0.85507008979056
  C   2.93889711448349      0.03967239032457      0.15221231030473
  C   3.61073220017718      1.23566597768478      0.09887006751104
  C   3.13179326777465      2.61174533644161      0.10233607135573
  N   1.98643351457367      3.13416549821001      0.11022651140785
  O   4.24693229372841      3.43012644227500      0.08177882681602
  C   5.46673088218296      2.67134717988025      0.04269794024971
  C   6.30026744278183      3.03038082399301      1.27353180084785
  C   6.75030999287772      4.48165076037416      1.20209924462214
  O   7.48386884672331      4.73693214017854      0.01810027171638
  C   6.69517458812630      4.50763150245302     -1.13633979748860
  C   6.23720977958765      3.05894207242152     -1.21986827221286
  C   5.01726097740635      1.23388392329310      0.04205014611975
  C   5.75577320328446      0.09586012168380      0.00507915860234
  C   5.07362534120249     -1.17941248297673      0.02709305359702
  N   5.56945377110051     -2.36827105209402     -0.00930660067493
  N   3.67418015152812     -1.07843443811707      0.11105797235666
  H   1.29083090350749      2.38812834848116      0.09287370189058
  H   7.17391219291064      2.37428264967584      1.30856880793723
  H   5.70206650832419      2.85575398576657      2.16986818538321
  H   7.41094602992331      4.72869539480259      2.03324407597178
  H   5.87298696042522      5.13873876175802      1.24214572242214
  H   7.31730619742993      4.77121309576033     -1.99174554057286
  H   5.81894037622698      5.16718227938184     -1.12294448745514
  H   7.10507095473996      2.40130377438735     -1.31426257875713
  H   5.59361945784822      2.90766397421599     -2.08855008715998
  H   6.83781531383908      0.09749197408183     -0.04263337427887
  H   6.58174832917181     -2.31397608716350     -0.06723566172240
  H   3.19100517886328     -1.96863858621658      0.11012262100119
