22
Coordinates from ORCA-job 9321optt
  Br  1.86091899499539     -2.10229682663480     -1.58422694309570
  C   3.64430161959468     -1.54902098451621     -1.04700251376090
  C   3.89867762320454     -1.11963111936029      0.30321887090488
  C   4.84090951419685      0.00829033926899      0.41641462303505
  N   4.99206746680402      0.85948811181124      1.33091510091066
  O   5.75976656733569      0.08332383524704     -0.66264093682663
  C   5.84467863177115     -1.15028185349697     -1.25022298984724
  C   4.60606028889983     -1.50436035925004     -1.97886116962165
  N   6.57099335795959     -2.02561858631691     -0.54763302268107
  C   6.17531529701049     -3.26359337499371     -0.49440241267197
  C   6.60049530541059     -4.06219685569955      0.67861010904408
  O   7.71875193693265     -4.23057027306297      1.06043771010646
  O   5.56884764451627     -4.63002769712257      1.37347493290027
  C   4.21658695854754     -4.50804111851485      1.08135204285362
  C   3.43717333566198     -3.43491314339638      1.11516217113719
  C   3.78998313334340     -1.99184683377918      1.42817770819823
  O   4.02405404420384     -1.69678862448725      2.59888457663400
  H   4.27169623267932      0.69808549948684      2.03048013448497
  H   4.50099999243943     -1.67779582847373     -3.03858493681103
  H   5.34828569867241     -3.64268691734753     -1.09142523586593
  H   3.79157886574484     -5.48510988645996      0.88235823354553
  H   2.39785749007538     -3.63440750290113      0.87751394742717
