23
Coordinates from ORCA-job 9326optt
  Br  0.76023774499556     -0.35157485269114      1.27938978388853
  C   2.92446719869946      0.08762117930843      0.08334973819056
  C   3.61233872624667      1.24350601629660     -0.00550703325549
  C   3.16296252331782      2.63359018724932     -0.00792983417886
  N   2.04044804363736      3.20070062010672      0.12712325865191
  O   4.29932383586096      3.40136735356387     -0.19373286587419
  C   5.40929913639664      2.57271089615018     -0.28152874777547
  C   5.06313588026930      1.28182550933825     -0.17093195751690
  C   5.74905863104439      0.01585536501632     -0.18033570466760
  C   5.00244099910706     -1.09857806194763     -0.03767608173271
  N   3.63305995502161     -1.08448413111437      0.07990681510656
  N   5.61293341380269     -2.37292838625020      0.07256052231253
  C   6.80705146763036     -2.63404211576762      0.69582174493340
  N   7.14801660480717     -3.87217322195512      0.62040367500812
  N   6.12982979181944     -4.45073134221731     -0.08281510492403
  C   5.13777166136616     -3.58045922168705     -0.44796177284298
  O   4.11799105990780     -3.79996958230811     -1.06082421390740
  H   1.33599583803856      2.47912618561179      0.27994458091682
  H   6.35280036458557      3.07110637611321     -0.42143133127005
  H   6.82042116075316     -0.06501278314521     -0.29947801377720
  H   3.12510397842249     -1.95803504090326      0.09679892152364
  H   7.36912374817565     -1.87027829387964      1.20601220250579
  H   6.12518823609399     -5.43714265488805     -0.26715858131498
