23
Coordinates from ORCA-job 9332optt
  Br  1.13427994092649      0.22103386022600     -0.04382442049648
  C   3.03331984130980      0.06400839709481     -0.04684155236989
  C   3.62832834427953     -1.17884867550807     -0.04685136692050
  C   3.17876596991476     -2.55733757945496     -0.04566760292232
  N   2.05037699020597     -3.15280744985050     -0.04423813483198
  O   4.31848327680294     -3.33081841195922     -0.04644253345594
  C   5.44359966208983     -2.51792737034811     -0.04817906364512
  C   5.06738689442037     -1.22712837732550     -0.04851705281542
  N   5.81149120651773     -0.04745111704814     -0.04986050856760
  C   7.19702995458665     -0.10163306882848     -0.05068371945541
  C   7.92225053271863      1.02857082041298     -0.05241054949732
  C   7.23307284463424      2.28012410891106     -0.05329167559220
  C   7.95450545442584      3.51458283384426     -0.05521859043787
  O   9.18485170559118      3.61432510252343     -0.05633717011386
  N   5.87415199200148      2.32104478095790     -0.05212861483713
  C   5.17845320437745      1.20561809556334     -0.05040910923614
  C   3.76044156116824      1.23696034812990     -0.04884079258416
  H   1.30432645279512     -2.46713381877456     -0.04384778113074
  H   6.39209371391388     -3.02158841829867     -0.04880879952233
  H   7.62067861902807     -1.09444285926545     -0.04978473737475
  H   9.00216206269680      1.01244869551406     -0.05304695012951
  H   7.31051510935153      4.41152829269142     -0.05571325275827
  H   3.29243466624344      2.20687181079248     -0.04905602130507
