19
Coordinates from ORCA-job 933opt
  C   2.09818630755141     -0.44702393438756     -1.31280843816913
  N   2.28468957966939      0.05465409788800      0.04212467832402
  C   3.12469315837095      1.22895915569660      0.05228064871769
  C   2.51731459340825      2.52999587009570     -0.50713877974365
  C   3.21956711568202      3.29474862821206      0.63509081879758
  N   4.47971382866050      3.88420766947977      0.19042463283913
  C   3.33165232165057      1.94591669972675      1.39309663873426
  H   1.59669620782086     -1.41675566481789     -1.28683302567656
  H   3.04104948850545     -0.55615321148788     -1.86722588411156
  H   1.47374722282332      0.25241700944007     -1.87665852427461
  H   2.74839630433115     -0.66624830916299      0.59461738242586
  H   4.09106462217318      1.03785565896639     -0.43578800845736
  H   1.43267845875154      2.52444153943940     -0.38791620389543
  H   2.78303072100184      2.82087576099107     -1.52730171189965
  H   2.63559529997570      4.07327840098933      1.12934462151748
  H   4.96594962063101      3.22781150769675     -0.41769497014498
  H   5.09479211186418      4.01632411857874      0.98877525832331
  H   4.26736601513924      1.75544156705891      1.92502174167989
  H   2.47381702198944      1.77625343559675      2.04658912501372
