23
Coordinates from ORCA-job 9343optt
  Br  0.80475636569674      0.21266254979629      1.02214103043731
  C   2.90802272354360     -0.07983438925953     -0.16723544901858
  C   3.68951949327483     -1.20328345728738     -0.01820662816016
  C   3.32720384960575     -2.60310757838960      0.17387891760463
  N   2.23682927115496     -3.20922318620516      0.32334190014774
  O   4.50757219766662     -3.32984800252850      0.20406624389469
  C   5.64463048940102     -2.48172267541381      0.11129294815651
  C   6.48426910599427     -2.65312070101788      1.33675575312213
  C   6.12021373544885     -3.20832152039812      2.51349454992797
  O   7.13380727937209     -3.16062053423282      3.38480209687335
  N   8.21240759637531     -2.56136653322412      2.78818071243532
  C   7.82829299628891     -2.26066259772795      1.58185826643798
  C   5.08589869077267     -1.08358572108783     -0.04358389942122
  C   5.73689215559210      0.10346136660291     -0.17618739656254
  C   4.95423652778260      1.30538006020265     -0.30761030078856
  O   5.37969675908462      2.44632945906571     -0.43637408750097
  N   3.55934364684231      1.08587915951871     -0.29513665301055
  H   1.48026064525955     -2.52464440383027      0.31018524012249
  H   6.22001782636106     -2.76440703229998     -0.77626464862389
  H   5.20211485315955     -3.66119013700766      2.84815149771529
  H   8.52316477461784     -1.77242581964794      0.91550946621365
  H   6.81303244277866      0.20597717446221     -0.18299295193182
  H   3.00981657392595      1.93367451991013     -0.37206660807080
