20
Coordinates from ORCA-job 9345optt
  Br  1.06100160488547     -0.18942610527116     -0.01469936100008
  C   2.94902415387877     -0.11881775822772      0.01190335649621
  C   3.66959046908717      1.07450220032297      0.02032717367907
  C   3.37270984195478      2.48402398116170      0.02117268584543
  N   2.30625174232285      3.18675486131767      0.01957186930305
  O   4.58687968844528      3.14343286939048      0.02602507910227
  C   5.61965299769619      2.20154500380035      0.03103230319203
  C   6.92611764180754      2.75172445042842      0.03383150177647
  N   8.07776305679658      2.14615849221674      0.03644487005030
  O   9.03445734617478      3.19509946460865      0.03712505824222
  C   8.42642078716972      4.39873582425470      0.03472626430695
  O   8.98503053594374      5.46454887497937      0.03418336759374
  N   7.08784354853855      4.11931911716191      0.03280474386473
  C   5.08144697462307      0.94954175095982      0.02854281723490
  O   5.73619652538779     -0.22009091830373      0.03150127822123
  N   4.98775643239147     -1.43258299633638      0.02926276657817
  C   3.68316602950683     -1.30793561028962      0.01813538515816
  H   1.50025346818034      2.56988448649349      0.01676737207699
  H   6.34200013021647      4.79381584120889      0.03080925298049
  H   3.17343702499257     -2.26423382987658      0.01453221529767
