28
Coordinates from ORCA-job 9346optt
  Br  1.20534160443010      0.33011220834901      1.14147190872510
  C   2.90823055010448      0.09869838791624      0.24668232245218
  C   3.56361505122570     -1.18179751176402      0.20583041486577
  C   2.87394102130239     -2.44767655377443      0.20324064612905
  N   1.63636544806284     -2.71963109597546     -0.01241044401906
  O   3.65024207304060     -3.57487495912865      0.43256109670675
  C   4.90821409008473     -3.34969307832810      1.01519512681428
  C   5.73607483369118     -2.42740665154100      0.14289054206856
  C   4.98684305686263     -1.12582110285926     -0.02786823346209
  C   5.61342958461698      0.04210595095620     -0.39354553843253
  C   4.88812052852382      1.25755270997670     -0.48621155882603
  C   3.55004633534281      1.26450848980432     -0.09079915585006
  C   7.10890836606645      0.08498735114451     -0.58592295512868
  C   7.85822051929759      0.53849556109214      0.68931235937529
  O   8.83053695137285      1.49818553201453      0.21767530584897
  C   8.47674568981252      1.73556504653443     -1.06849485127592
  N   7.56148242528435      1.06223910765815     -1.60315108988244
  H   1.13841485387755     -1.87116090204582     -0.25483772250843
  H   5.37333358043011     -4.33116409721100      1.12152247879850
  H   4.78891697669809     -2.90646442912742      2.01208573859962
  H   5.89614934213687     -2.91630870555351     -0.82504925042246
  H   6.71722403765774     -2.27638889041906      0.60249560517297
  H   5.36646100197309      2.15693524916723     -0.84793682702099
  H   3.00913208048096      2.20099557265951     -0.02312020778406
  H   7.46722085490836     -0.88978692547993     -0.92176690245313
  H   8.38654131505860     -0.26453405223475      1.20065427852692
  H   7.18267222079319      1.04584276756663      1.37859665957020
  H   9.04757560686327      2.51748502060281     -1.55509974658829
