23
Coordinates from ORCA-job 9351optt
  Br  1.70400499803430      0.22585711638450      1.43922167990142
  C   3.20632408321152     -0.00217565463224      0.10573121561016
  C   3.83895074553462     -1.29795881507590      0.04862730680246
  C   3.06980117531872     -2.54049604733792     -0.13185853724572
  N   1.83974441697003     -2.64672844628542     -0.40174587899682
  O   3.76785904889091     -3.71881604830017     -0.05803808202145
  C   5.02948377980518     -3.68073077017978      0.56755768537958
  C   5.93947264195890     -2.63248764145630     -0.06398478072084
  C   6.34337563380398     -2.99724107404476     -1.42191040116305
  C   6.66956667700390     -3.31052132164528     -2.53142244705157
  C   5.21356584668602     -1.30368672844673     -0.02601375656764
  N   5.97948633478129     -0.20306689009628     -0.08174785411160
  C   5.26480207277436      0.91896147330741     -0.06209480072205
  O   6.02675220318925      2.08583312071112     -0.25819623922497
  C   6.72647908341186      2.54669180546578      0.77529928710596
  O   6.74803748867834      2.11005424718310      1.88528297326809
  N   3.99334549166195      1.10999304933836      0.04630426434972
  H   1.42857604506833     -1.71868399959227     -0.46086710192645
  H   5.44820837933288     -4.68042919555241      0.46264907956625
  H   4.91527880553565     -3.44381789588395      1.63067059096124
  H   6.83985933741687     -2.52277108159065      0.54642184284348
  H   6.94580435913516     -3.57460137445851     -3.52280375606581
  H   7.29722135179589      3.42782217218832      0.45191771002960
