25
Coordinates from ORCA-job 9355optt
  Br  1.23470520553501     -0.22379721141247     -0.62422174115691
  C   2.94060011654666      0.15004003586676      0.32245000030342
  C   3.59510500326683      1.34753744346606      0.08396760733725
  C   3.18029776368540      2.72273753160515      0.03289255708012
  N   2.05981626994270      3.33270018941390      0.07113548902499
  O   4.34161004151880      3.47723818139119     -0.09905596728681
  C   5.44257600036495      2.63678428114809     -0.13371550569591
  C   6.76137984819239      3.29858643320961     -0.27260743570271
  C   7.92731244065763      2.31714382630406     -0.22780610361536
  N   9.22052332415699      2.97956307864507     -0.28429393350275
  C   9.82439548018505      3.30861563759175     -1.46003211683945
  N   10.82163713081430      4.07329749705506     -1.66641516437089
  C   5.00833871645290      1.36910792490633     -0.03023403009320
  O   5.74420086123658      0.20659732506352     -0.02310968705773
  C   5.09496448643280     -0.98140313903146      0.04900981645060
  O   5.72543448229213     -1.99467237499035     -0.00517804547000
  O   3.77204833273407     -0.99307870081114      0.21642235448446
  H   1.31893535052200      2.64124404774953      0.15200486288008
  H   6.88188503334860      4.03669027063588      0.53042084144361
  H   6.80540619969368      3.86568289427566     -1.21049244892229
  H   7.86966241243351      1.61963655836971     -1.06420560439440
  H   7.88102955978298      1.71281786128167      0.67821991883236
  H   9.49418748893338      3.51185469076859      0.52818483082156
  H   9.37721960374537      2.79934997558310     -2.31532471887354
  H   11.14672884752511      4.49872574191468     -0.79701577567647
