23
Coordinates from ORCA-job 9356opt
  Br  0.98378118685562      0.21894613257553      1.48730618884775
  C   2.83955659463912      0.03847498897438     -0.03719457983292
  C   3.51074825438108     -1.19037134390009     -0.05960174776383
  C   2.78140580819343     -2.46981632867531     -0.20369954689869
  N   1.55533095115168     -2.67404428978798     -0.35235358902285
  O   3.61017429267736     -3.58553273552557     -0.25631391069415
  C   4.80662031995791     -3.44257576624077      0.43781976578765
  C   5.56921727551013     -4.74107093385942      0.24346601214058
  C   6.84183965381302     -4.76447811207928      0.95861741505385
  N   7.83853586212943     -4.80739846820271      1.52158006299928
  O   5.58502492071147     -2.40036159720367     -0.07913883985768
  C   4.90710393452408     -1.20728903477469     -0.07732165314552
  C   5.66057014315923     -0.04273296337404     -0.12273714859960
  C   4.99249631905208      1.16758128277379     -0.14705550272925
  C   3.59626569551414      1.21203808583322     -0.09065993952546
  C   2.97358715906430      2.50708271770310     -0.12371973312017
  N   2.55065458427002      3.57425287925380     -0.17743695701580
  H   1.05830788179394     -1.78343912205461     -0.30096588061099
  H   4.60517592818731     -3.23760740772662      1.49766134507264
  H   5.75133895933865     -4.86847954009772     -0.82417070771251
  H   4.94667743050164     -5.56598194896650      0.58895415428240
  H   6.73925114113247     -0.10703337321431     -0.13706848354039
  H   5.55033570344147      2.09483687856961     -0.20396672411439
