23
Coordinates from ORCA-job 9359optt
  Br  1.02520733564705     -0.05155105563676     -0.06084500463949
  C   2.91719098225209      0.02685859426956     -0.13919335525596
  C   3.63539145054283      1.21142336723971     -0.03204294776939
  C   3.36426774039959      2.61345058263868      0.12150879504372
  N   2.30182379155993      3.32823287106535      0.19975076471478
  O   4.58878848234815      3.25651614225879      0.17334123873672
  C   5.59859156381793      2.30732702035242      0.05321492594430
  C   6.99171838652151      2.76417020965524      0.06067302619191
  N   7.43708295783126      3.31830393617145      1.35539255876242
  N   7.38476247761740      2.63481578243782      2.47138353672575
  C   7.87425653274813      3.46782549366768      3.38519845652429
  C   8.21430515553279      4.66090925033789      2.74751242075778
  N   7.92611764624926      4.53340191211957      1.45482531896316
  C   5.05907834036290      1.08135837494178     -0.07107699065764
  O   5.71222085232085     -0.09412105462878     -0.21684654992315
  N   4.94840696022679     -1.29432975900080     -0.34428297568584
  C   3.64497614537206     -1.15899235403285     -0.29171816852436
  H   1.49355269089505      2.71635507920462      0.14280773161164
  H   7.17501421915544      3.57574430794631     -0.64477060823896
  H   7.63364255720613      1.91612989662466     -0.17768491568460
  H   7.94798612384097      3.17708922871899      4.41900015250737
  H   8.62878874329660      5.57454025578396      3.13766426076082
  H   3.12682886425522     -2.10645808213532     -0.38481167086526
