22
Coordinates from ORCA-job 9362optt
  Br  1.20413179527592      0.21149102751711      0.49850347792503
  C   2.89239711238668     -0.10069951295344     -0.37546189304662
  C   3.66839012581599     -1.20759788296384     -0.10293609261831
  C   3.25457978923923     -2.57081065813223      0.28806316532308
  N   2.13559769221542     -3.11432182732538      0.53600882391636
  O   4.38524974709375     -3.33243720897520      0.32773800974049
  C   5.48684437977600     -2.56343289386608      0.01001238748870
  C   6.75463712455308     -3.18577573505525     -0.06499376831563
  O   7.01334510834154     -4.36614240548161      0.17492677078454
  C   5.08029103787985     -1.24939387673653     -0.22760851741789
  C   5.85473630719789     -0.02676324938439     -0.34650075176830
  C   5.28392374321819      1.13969319471922     -0.68110115062482
  S   3.59841357691496      1.31722389283071     -1.12800312119456
  C   7.29382621114644     -0.03769273412827      0.03716817641023
  C   8.35530349358914      0.08853277507662     -0.96878638975483
  O   8.01938952093333      1.16913340792725     -0.11515300181349
  H   1.39815919570344     -2.42216920224137      0.46336592439563
  H   7.55800415983954     -2.50288964706211     -0.39483671708294
  H   5.86136185725439      2.05540142364656     -0.66542968347302
  H   7.52947526495181     -0.58881934962598      0.94318641851968
  H   8.06056352348634      0.21492822636548     -2.00521770742841
  H   9.32637923318697     -0.36145776415125     -0.78994435996491
