25
Coordinates from ORCA-job 9363optt
  Br  1.05817885167817      0.15792735164635     -0.14968678629429
  C   2.95700439513952      0.11769442376769     -0.02198254617911
  C   3.68466783621486     -1.09881761244092     -0.06584217391855
  C   3.33844927739255     -2.50228883074454     -0.17590314243645
  N   2.24283215231943     -3.15517724300087     -0.24747304280569
  O   4.51587933193575     -3.19592961396074     -0.19594109799634
  C   5.60639159701216     -2.31991422403983     -0.09225980109574
  C   6.86743592249323     -2.94334319860123     -0.11036371791308
  O   8.00108490464033     -2.44870767717749     -0.02314548424748
  C   5.08078903474840     -1.02605147997700     -0.00925678411180
  N   5.69291274375821      0.20468359498486      0.11695159783038
  C   7.12669252051093      0.35854415636962      0.03446830927771
  C   7.64984700532979      0.20844606566999     -1.40117252431386
  C   7.22511139007357      1.30388261464337     -2.26747459291635
  C   6.85228648742810      2.21696271144859     -2.94979007942621
  C   4.86605417567605      1.33587656103915      0.08527089782753
  N   3.56942409506336      1.29675038333003      0.03515628793504
  H   1.46522693242218     -2.50516543553578     -0.21977644633426
  H   6.76257389348517     -4.03819282016250     -0.22554046691400
  H   7.60279305907271     -0.41021008555663      0.63754812947659
  H   7.37862092004735      1.34543011944574      0.42578116002941
  H   7.29550892052285     -0.74656180531970     -1.79415905970838
  H   8.73942282213564      0.14770728495514     -1.37486082535683
  H   6.50593813875799      3.01979888455233     -3.55393290129992
  H   5.38487359214161      2.28365587466441      0.11938509089170
