23
Coordinates from ORCA-job 9368optt
  Br  1.16166919198388     -0.22262928349178      0.26426193836291
  C   3.01181623597252     -0.36716045067326     -0.40788594870910
  C   3.78756132622292     -1.46912559048788     -0.01346754759824
  C   3.46041174799486     -2.87133508061246      0.10644918838877
  N   2.41310832163787     -3.56226914026440     -0.04491609574598
  O   4.63391179945479     -3.54360798965394      0.44804320472486
  C   5.73442377849793     -2.65405767783453      0.44190700962070
  C   6.71163991265721     -3.00631980543407     -0.67321895997899
  O   7.85917261300152     -2.63314784806674     -0.66002145271963
  N   6.15273455775916     -3.73797884164165     -1.69617558356594
  C   6.85399266362216     -4.10173965369863     -2.83155553696189
  N   6.42473390479228     -4.79510993534343     -3.79866729270909
  C   5.14582713123060     -1.28540996972608      0.20048827090877
  C   5.76872971636647     -0.06451886850357      0.14568194404381
  C   4.97590070757783      1.08315916285327     -0.17146262134032
  O   5.33418136098793      2.23210352148309     -0.24423376283235
  O   3.61268152110153      0.85068994607234     -0.45950747844222
  H   1.64111963377160     -2.94199264175116     -0.27741954001210
  H   6.27687771194901     -2.71863239875926      1.38662037566400
  H   5.19924989184514     -4.05215855770547     -1.56334377455154
  H   7.87241532722174     -3.72464443393594     -2.82981768975675
  H   5.45171506768000     -5.07171210322728     -3.65860473366062
  H   6.82512587667088      0.08059764040290      0.30684608687096
