18
Coordinates from ORCA-job 936optt
  C   1.04314177743344      0.02309561797458      0.11161828426125
  C   2.53554024741703     -0.15257866890956      0.20694706913673
  C   2.99124985254996     -1.41756298168324      0.63391934137923
  C   2.21437065129389     -2.53668879457252      0.91693365668750
  C   3.34713256549489      0.92488677969682     -0.15275635426174
  C   4.83542997183464      0.89107503605824     -0.10220973276276
  N   5.40828491369725      1.98580320264606     -0.91644425824615
  H   0.78622152544050      1.04280964005272     -0.18171551797285
  H   0.55285663398510     -0.20239533760166      1.06628920843192
  H   0.60973569673086     -0.66405692964044     -0.62652150253472
  H   4.06614702769541     -1.53235725695487      0.75799891732645
  H   1.13493759072639     -2.53051944757918      0.82739964451231
  H   2.67128286919940     -3.45498127771153      1.26373059019354
  H   2.90207841978729      1.91013968618750     -0.26180246316424
  H   5.18594471751679     -0.09597457362501     -0.43616159210449
  H   5.23710606050543      1.02446032330623      0.91899890255102
  H   4.96564633402486      1.94648284475824     -1.83014030526193
  H   6.40189314466685      1.83636213759761     -1.05708388817108
