22
Coordinates from ORCA-job 9370optt
  Br  1.11226552398287     -0.03055894247268      0.04777789415565
  C   2.99779489358619      0.07476265908335      0.05461099636026
  C   3.69912707242647      1.26274990552642      0.05080111854381
  C   3.00678273876067      2.53279290668476      0.04125415263242
  N   3.54859214992330      3.68420897564273      0.03861468234912
  O   4.92011613642130      3.71760943067749      0.05080715376746
  C   5.74135153150067      2.59362088704116      0.06922193972138
  N   6.99054141003596      2.84784733919473      0.09924049047065
  C   5.11868316989401      1.27988469820633      0.05398581729854
  C   5.85923631692474      0.05962108892273      0.05117374064745
  C   7.28393990584255     -0.06086584166238      0.02302924080953
  O   7.91446750254722     -1.13313714581084      0.01783698828700
  N   5.08414718623033     -1.12497364198825      0.06887049965297
  C   5.48767124682968     -2.44207979509984      0.09113081441472
  C   4.33569324484332     -3.18050103869146      0.10410266456730
  N   3.22952870690567     -2.38485585994775      0.09080830814744
  C   3.70144099089597     -1.15440376420484      0.07027191195882
  H   1.92517876176993      2.55147022254430      0.03258909445381
  H   7.12041957801140      3.85773917817660      0.10516856295135
  H   7.81503165348888      0.88926674743512      0.00359993381130
  H   6.52739203254528     -2.70046686667465      0.09322355808800
  H   4.25459824663347     -4.25573114258304      0.12288043691101
