23
Coordinates from ORCA-job 9375optt
  Br  1.79816344895711      0.51914778263101      1.60430638981225
  C   3.47554221574163      0.13684938424592      0.71899249502749
  C   4.35954070349977      1.15834233489127      0.37634949759668
  C   5.72097052197580      0.71515447557563      0.10385490374695
  N   6.80884426422269      1.38436596594490      0.26176783931302
  O   6.64149927219510      2.54976252033012      1.07271387659743
  C   6.20311071200696      3.64617153667313      0.39498370464334
  N   6.94677778079991      4.67646807559910      0.39879655676206
  C   4.86136670214389      3.55564319810738     -0.15589369665009
  C   4.00373416608747      2.51679070920311     -0.00230224814941
  N   2.67843007783642      2.71094687620897     -0.43236980373211
  C   1.85052996620737      3.76309913519413     -0.09669059970055
  N   2.08503641292217      4.82409079206279      0.55377792570067
  C   5.89081559340975     -0.69280710020788     -0.38292589339660
  O   6.88049759818371     -1.08847959247001     -0.99751138778067
  C   4.80732325703269     -1.55823799130395     -0.00109517086337
  N   3.68987076871179     -1.16119193903011      0.58646049499499
  H   6.46378122810797      5.44128757770716     -0.06777474805173
  H   4.49917908471379      4.43254324975088     -0.67727629179761
  H   2.19139229401567      1.87234906557498     -0.70434694384645
  H   0.84316851306136      3.60332005926020     -0.48164799488445
  H   3.04840983754428      4.85394533313751      0.88411061021476
  H   4.92201558062266     -2.61656144908627     -0.20927951555661
