25
Coordinates from ORCA-job 9376optt
  Br  1.98134558800032     -1.98762157068714     -2.02496721509728
  C   3.70875650633557     -1.49016163528894     -1.29380525867565
  C   3.89434398244824     -1.64291909118150      0.07592754848968
  C   5.11559929994026     -1.08758434202241      0.58590612521396
  N   5.43251095972863     -1.04282646550570      1.82526314491593
  O   5.98278659508838     -0.55046689307882     -0.34913747723249
  C   5.82812906659013     -0.84402332050217     -1.71117119894834
  N   6.88625601670349     -1.72582620732143     -2.19544787829171
  C   6.44268366287192     -3.02324552610671     -1.80118649448295
  C   6.62242325513199     -3.61014363638944     -0.60964944708239
  C   5.45498590235401     -4.32408863279302     -0.10259584518322
  C   4.97017201305567     -4.06560597905059      1.11799170543790
  C   3.49746730560665     -3.90622552881364      1.25067807223827
  N   2.62842802349126     -4.81775044082870      1.39751276431131
  C   3.03493557904351     -2.46060229187306      0.99209360921803
  N   1.95475265430717     -2.08268253933404      1.53068845227593
  N   4.57724596904327     -1.10004118353059     -2.18329096031229
  H   6.35457262311555     -0.62151392296545      1.91740362949110
  H   7.73628321636149     -1.46496395306661     -1.70775376488034
  H   5.64972221892693     -3.38699187395359     -2.44564788227077
  H   7.32524763632792     -3.19729667718865      0.10787654506899
  H   4.77162030513872     -4.70917820775560     -0.85651644509506
  H   5.57934635842473     -3.52358372972107      1.83286791311925
  H   3.10833241102360     -5.71108830163693      1.52105020234191
  H   1.76705285094046     -1.11956804940413      1.24691015543022
