26
Coordinates from ORCA-job 9377optt
  Br  1.15385167441537     -0.44055082788946      0.44145633906619
  C   3.08043860242515     -0.32087962761812      0.42352057000076
  C   3.82730779740666     -1.43154224093587      0.04392669158019
  C   3.49429325837172     -2.79776993180516     -0.26470400746839
  N   2.43897991560219     -3.50116905180144     -0.42003650891292
  O   4.71242957010426     -3.48289067460893     -0.38908480542096
  C   5.73917830447312     -2.59589010806996     -0.20202234304393
  N   7.01014083447431     -3.14590320180447     -0.32327034278612
  C   8.02115518486098     -2.71379462723598      0.63244513111392
  C   7.55246568886092     -2.67204909001930      2.08923065032790
  C   6.81262018836614     -3.94717212356361      2.50934586836108
  C   7.62236275684308     -5.14627159417556      2.28998185662727
  N   8.28232693312781     -6.06553365323424      2.10135963132260
  C   5.28285061127047     -1.36109849914410      0.05003156400439
  S   6.14200164714687      0.15493364175006      0.19640663394847
  C   4.83432129218366      1.09401320309949      0.95123460177352
  N   3.55397739491438      0.82003061543485      0.88224167112766
  H   1.62334425166103     -2.90811456510023     -0.31715772460394
  H   6.95288467686167     -4.14975645823690     -0.42563462810429
  H   8.37328960379731     -1.71649294893428      0.35826268343213
  H   8.86489655470982     -3.39820414933689      0.52898199518851
  H   6.87311441856703     -1.83059390566560      2.23080398229164
  H   8.42044210862051     -2.51381640774635      2.73292043678541
  H   5.88841895337130     -4.05169565988570      1.93610653580698
  H   6.53991193943370     -3.90775005912028      3.56423116551148
  H   5.15999583813036      2.04396194564806      1.35242235207044
