26
Coordinates from ORCA-job 9382optt
  Br  1.02995923240087     -0.02639830345190      0.14599285596005
  C   2.91807137292768     -0.06167794126513      0.00970015503080
  C   3.58401740804218     -1.27089655830524      0.24465199397811
  C   3.01827768986778     -2.47283476518721      0.65623457858716
  N   3.63065200863082     -3.63876668541615      0.77587524942685
  O   4.93673449509851     -3.63585489133481      0.17355747977706
  C   5.57395513014003     -2.53444999377089     -0.23881301144821
  N   6.67509556960223     -2.63956774446919     -0.87478182104454
  N   5.00328380354754     -1.30411074659967      0.05982406603833
  C   5.70933209640619     -0.09827826282911     -0.04597439458190
  C   7.20925183944519     -0.08281899745618      0.14074260180862
  C   7.98837155561884      0.00943073377624     -1.16908747271499
  C   8.22250913602273      1.40477825170744     -1.66435440433348
  O   8.01120445471609      2.41698483703735     -1.05127129938121
  C   5.03995896766895      1.05235299196917     -0.20051650802463
  C   3.57593229757749      1.15644306314949     -0.30041893268751
  N   2.96114753903236      2.26484052497575     -0.58884935143269
  H   1.97631304170478     -2.49601128166355      0.94188146485307
  H   6.90292117464755     -3.62804351998084     -0.94039751317748
  H   7.52274826289713     -0.96641610991304      0.68772209319792
  H   7.44419162959675      0.79550743105954      0.74324886204418
  H   7.50267836650687     -0.57005373399498     -1.95586490574607
  H   8.98452979569308     -0.44105070020560     -1.07009210153441
  H   8.65615036325780      1.46621102653443     -2.68424608288787
  H   5.60970689570940      1.97390478072725     -0.20516855573807
  H   3.65300587324101      2.99277659490685     -0.75459504596908
