26
Coordinates from ORCA-job 9386optt
  Br  0.67614563711090     -0.19554069829965     -1.35103835840215
  C   2.88990579809966     -0.06553380297710     -0.04729664151337
  C   3.59234010478871      1.13859024823159     -0.01979325842302
  C   2.90640498804034      2.44478125882902      0.15451071460826
  N   1.68746954102127      2.68772253625152      0.30213412132918
  O   3.78111596525669      3.51961516423527      0.24618299237632
  C   4.94470412576880      3.35535335313375     -0.49555859168554
  O   5.72104851997934      2.28060789692015     -0.02711812426105
  C   4.99735754947943      1.11868062847520     -0.01460711876339
  C   5.67720245746442     -0.08416190606317      0.02648093551004
  C   7.15460740191883     -0.38661234307785      0.03543946105176
  N   7.23684212186842     -1.81610972872701      0.40297838596082
  C   5.93666064349232     -2.41709100747041      0.04153342364139
  C   4.96084790423487     -1.26640851015466      0.02297747333519
  C   3.56470813611203     -1.28656143529761     -0.03632888188278
  C   2.89763170419337     -2.55407919637017     -0.05160188915173
  C   2.40902989323059     -3.65127214987354     -0.05851456424324
  H   1.15562352483417      1.81863517854411      0.21281965303737
  H   5.54041879661405      4.25641592679693     -0.38015936980752
  H   4.69895963931510      3.17315836467765     -1.54956832044684
  H   7.72540799227534      0.22557440530079      0.73419544311908
  H   7.58981352473367     -0.23561411005784     -0.95823695816183
  H   7.31768733765333     -1.86141922059769      1.41154534064505
  H   5.65688535434734     -3.20538081982053      0.74063535137974
  H   5.99622216664915     -2.87291490351094     -0.95239815903364
  H   1.92695917151768     -4.59743512909782     -0.08221306021811
