25
Coordinates from ORCA-job 9388optt
  Br  1.24916903579605      0.02775253707519      1.26691491178497
  C   2.97561099298838     -0.06633473951587      0.37411650972184
  C   3.64185500193619     -1.32835682856600      0.19941182272364
  C   2.96949403057382     -2.55819130271471     -0.15883755951750
  N   1.76208207502433     -2.77826106183102     -0.50444305677691
  O   3.78793260086272     -3.68409213879612     -0.16492457640015
  C   4.94567056395193     -3.53336824043615      0.57519110045569
  O   5.73473117944228     -2.47673531076482      0.08311178375765
  C   5.05672307856004     -1.27364679683287      0.13450865082382
  C   5.78788720606585     -0.10243812948624      0.08572274270875
  C   5.05379821417158      1.12832695123432      0.12826469724359
  C   3.69327715834956      1.12289044995040      0.33838909107442
  C   7.23796270560109     -0.05556741445663      0.02377258459511
  C   8.11496153059483      1.00744892163247      0.11075841157893
  N   9.41517353306772      0.58983410812535     -0.02216273317341
  C   9.34383499698201     -0.70496066449429     -0.18709491396571
  N   8.05939386972502     -1.14310943025635     -0.16837880414313
  H   1.25362270993213     -1.90103937511165     -0.53871269158882
  H   5.53004786004542     -4.44438841128214      0.46887044929177
  H   4.70742847835167     -3.32846855330900      1.62602176699633
  H   5.58056958499838      2.06520771957482      0.00930286956374
  H   3.16558050893207      2.05873473229023      0.47962207728058
  H   7.87366204297009      2.04457887119894      0.27158536291909
  H   10.17926213451508     -1.37363350968730     -0.32067326233894
  H   7.71626890656165     -2.08418238354054     -0.26133723461535
