21
Coordinates from ORCA-job 9389optt
  Br  1.09473513104574      0.06770240662747     -0.24086086232737
  C   2.96603732878891     -0.08384137290476     -0.04046653999561
  C   3.60821925050322     -1.29671974346709     -0.01527209333903
  C   2.90275501725038     -2.55726010217865     -0.15937803795614
  N   3.42089148736013     -3.71699227140305     -0.05566464112568
  O   4.74404956897607     -3.80155577244987      0.28664463121919
  C   5.57051775707660     -2.69039410648134      0.46486232548484
  O   6.65630888901211     -2.93687017212193      0.91836754028737
  C   5.01858779550882     -1.40100416475504      0.12838306123930
  C   5.77032093187165     -0.20503949839508      0.13218689338991
  N   5.06388120688931      0.97332542198007      0.20925772685327
  C   3.69497633884606      1.15842728153535      0.12455719682127
  N   3.12278454174115      2.30721403446428      0.17467275071217
  C   7.18197229198549      0.03822537797358     -0.00745369660695
  O   7.62222586653286      1.20533521761948      0.13357085811834
  C   8.06874003756099     -0.99784896220149     -0.47811704276559
  C   8.84967309407788     -1.78021707662673     -0.94737212520032
  H   1.84947650411834     -2.56048399617589     -0.40632743649255
  H   5.67015657590994      1.78746697529637      0.22292500762213
  H   3.81487275759736      3.04468378401733      0.28710083785352
  H   9.52281762734696     -2.50715326035300     -1.33061635379207
