22
Coordinates from ORCA-job 9392optt
  Br  0.78624331812683     -0.40481548000666     -0.44178464745443
  C   2.65089974726679     -0.23704017067471     -0.22396992493856
  C   3.18441020186349      1.00269767020811      0.07279680143832
  C   2.53235809366395      2.24460650920854      0.26764750738872
  N   3.21404599516010      3.08278009841199      1.05947823849076
  O   3.65908802370498      4.20285926510512      0.19548098524586
  C   4.72070426330197      3.74726128633636     -0.46952621722798
  O   5.23213567949737      4.38707425532498     -1.34823729497942
  C   5.33802837198105      2.37364363492332     -0.08266999130103
  N   6.66151842968734      2.45436298660161     -0.04130753869785
  C   7.36955761319836      1.33605415672004      0.11215456090305
  C   6.81414949897089      0.07583974621883      0.12156455215167
  C   5.42349667358516     -0.02204145509490      0.05657873277198
  N   4.79393465029037     -1.24030746081488     -0.01767881828610
  C   3.43194049045144     -1.44111673186076     -0.29641174547390
  N   2.94504041270936     -2.60817104394834     -0.54009063286659
  C   4.64952760287673      1.14180348176655      0.06193693435253
  H   1.73653233781580      2.57799985031703     -0.39916024241555
  H   8.44484159616221      1.45898890048681      0.19201937902073
  H   7.43468165941704     -0.81129639199108      0.16577696516289
  H   5.37712022560381     -2.05931690090893     -0.07705822453945
  H   3.67374511466490     -3.31786620632905     -0.51353937874563
