22
Coordinates from ORCA-job 9393optt
  Br  0.75920202995671      0.03487341610130      0.47160936801625
  C   2.67816942078594     -0.01840835218606      0.29415370700609
  C   3.37681648274803     -1.14722626902267      0.07408525044425
  C   2.85349989152654     -2.53449660893291     -0.01627178392188
  N   1.85677790517246     -3.04489304433285      0.56810377079722
  O   3.55039665385881     -3.35076966570795     -0.84355989971490
  C   4.94023162729815     -3.24598620578130     -1.07992337248939
  O   5.43572634654670     -4.17366178806441     -1.68117818227314
  C   5.54668106410634     -2.07883201621671     -0.57278584948608
  Br  7.42284739577287     -1.95196661291099     -0.78381063392098
  C   4.82249500412417     -1.00623640682976     -0.03828636649175
  C   5.34756866085729      0.19597378369475      0.47057615126996
  N   4.65943701118530      1.25307815013978      0.82018971891415
  N   3.27395930108862      1.20090843779416      0.53930890442221
  C   2.85710738460642      2.37426515217602     -0.21693978931503
  C   3.19105461024593      2.27779291311961     -1.64390194006741
  C   3.47045378258498      2.12749703582856     -2.79920835529413
  H   1.39039784718998     -2.35197476550240      1.14225212609826
  H   6.41573839099599      0.28306376436711      0.63172496515277
  H   3.37534662783066      3.22011762185678      0.23248026965011
  H   1.78339371356643      2.51743405644504     -0.10058405644546
  H   3.72769884795162      1.97944740396491     -3.82003400235111
