20
Coordinates from ORCA-job 9398optt
  Br  1.07429350242801      0.02116929721203      0.03585003484360
  C   2.95590548883002     -0.10852216454755      0.03967578677137
  C   3.63552344772587     -1.33003062328248      0.11942674316649
  C   3.20860019105838     -2.72578491269051      0.20567828511096
  N   2.08997536728333     -3.30699871824168      0.23733870362867
  O   4.35036730528636     -3.51173370120171      0.28513366672456
  C   5.50878380358433     -2.73079495983084      0.20427890488178
  O   6.21978651931102     -3.06135930365452     -0.99445523501838
  C   7.12249903209067     -4.04061484838423     -0.91399871021446
  O   7.39458042220086     -4.68438021004271      0.05464087523220
  C   5.02441368511882     -1.32179382654918      0.12368744174341
  C   5.72879641734964     -0.15558696977234      0.05130945540410
  O   5.06769515557591      1.04754541227566     -0.02608216674696
  C   3.66608162647206      1.12860965459662     -0.03722829002809
  O   3.20795212170445      2.24253364476658     -0.10948793185382
  C   7.13706135379588     -0.07999860331212      0.03813260312915
  N   8.29194856444368     -0.05863639134681      0.03222415252669
  H   1.34815465731453     -2.61504848707830      0.19279792263325
  H   6.15781488224585     -2.95442029023613      1.04972178555713
  H   7.59776645618025     -4.16815399867975     -1.89464402749167
