22
Coordinates from ORCA-job 9399optt
  Br  1.07925904847097      0.12390015819322      1.28110472568511
  C   2.78007515106744     -0.07764770702759     -0.13477422313772
  C   3.55084369867922     -1.23869188744271     -0.03699823343223
  C   3.21319209231024     -2.64477632584671      0.00124836972790
  N   2.13790755174686     -3.29303716947822      0.05775972650702
  O   4.41463057950707     -3.36315513826072     -0.02355313586169
  C   5.51575474321552     -2.50133976410781     -0.03532596055338
  O   6.39365887729779     -2.82908731682646     -1.11425388989249
  C   5.96817984169537     -2.65513009860894     -2.37272280156648
  O   4.90066675602997     -2.26733874761794     -2.72679888060121
  C   6.32088244021507     -2.68348571167910      1.18150490542680
  C   6.93993618635943     -2.81117145717175      2.19533733395101
  C   4.92546431447693     -1.09458729535290     -0.11268063360574
  N   5.64281097251556     -0.01628276906987     -0.21890884209214
  C   4.91540273066233      1.15806496760443     -0.27421632678819
  N   5.40156397909879      2.33816404720989     -0.36987611448469
  N   3.50659902978580      1.05226397283888     -0.24780089442729
  H   1.36419863477326     -2.63120117232415      0.09753762020542
  H   6.78332973960158     -2.94163706350291     -3.05058485822014
  H   7.48641739708320     -2.92085391587270      3.10016924603173
  H   6.41385724052840      2.25713491831133     -0.39181537446061
  H   3.02936899487906      1.93989547603273     -0.31535175841099
