21
Coordinates from ORCA-job 9401optt
  Br  1.09708728011414      0.04921615328017      0.22042576130205
  C   2.98553178505010      0.06906242945025      0.16692940026202
  C   3.69571969523195     -1.13822847426860      0.02412122218393
  C   3.13416303232804     -2.38749135007902     -0.21049279423820
  N   3.77501270817083     -3.52924516032620     -0.30086242684587
  O   5.15404829204219     -3.43282250413801      0.02414026926628
  C   5.80847573512146     -2.28624476253060      0.30852284655546
  O   6.92527516710520     -2.36090739936891      0.72288670327681
  N   5.11204861620447     -1.08773711916584      0.09696274845928
  C   5.84413153940128      0.15286663675950      0.01590991028880
  O   7.04293225895626      0.15676910761212     -0.17360250565900
  C   5.04630917442116      1.32966138331479      0.15624702735235
  C   3.66277417728778      1.27383821821094      0.24263139358050
  O   2.89235084923603      2.40153446989750      0.38009414511835
  C   3.58459171236028      3.60834340181706      0.51108326951694
  C   2.61393243820191      4.69278054509584      0.70675343729183
  N   1.91338985183204      5.58477386652474      0.86220454185556
  H   2.06691612277605     -2.47241444633809     -0.35708450179165
  H   5.60420164470633      2.25037413718498      0.12775854521933
  H   4.17296111591586      3.83770845886562     -0.38282653690059
  H   4.26114680353657      3.59116240820174      1.37119754390584
