18
Coordinates from ORCA-job 9411optt
  Br  1.29556339660729     -0.30700768119610     -0.07556356060799
  C   3.16588466185162     -0.04301865292325     -0.06710006523023
  C   3.76763787700595      1.17842739057962     -0.06441678223631
  C   3.33632367727135      2.55548821054114     -0.06489173445552
  N   2.21391606627720      3.16006678119521     -0.06805644775712
  O   4.49216717380692      3.28021680219718     -0.06058379278121
  N   5.64112995325703      2.44331652449479     -0.05652235601570
  C   5.20717966746400      1.22639389222599     -0.05874507093342
  C   5.93389887655891     -0.03844655504300     -0.05666001343427
  N   5.25741877843064     -1.20725160163994     -0.05911252257203
  N   3.91005616354718     -1.14940844903187     -0.06409756401033
  C   7.35170322207234     -0.13582221446141     -0.05257232420851
  N   8.02706957275025     -1.29711662876340     -0.05224241329253
  S   9.60383043834841     -0.90805249084045     -0.04654785140052
  N   9.37213099842533      0.76556625310113     -0.04524631027825
  N   8.13577656935593      1.01067091270065     -0.04890650043946
  H   1.46124118572108      2.47987561026795     -0.07088953553652
  H   3.46207172124851     -2.05089810340424     -0.06584515481008
