19
Coordinates from ORCA-job 9413optt
  Br  0.90214253444968      0.30178270933586      0.01570782096038
  C   2.77667163051107      0.16781272735089      0.00016243419358
  C   3.40551603235403     -1.02451062248183     -0.00295733558600
  C   3.02957145684900     -2.43090703420055      0.00024842182068
  N   1.93563137727565     -3.07372106374303      0.00488198153476
  O   4.21464706556752     -3.10644915841447     -0.00432531173718
  N   5.33258349878812     -2.22800475156669     -0.01151964382009
  C   4.84439521946571     -1.02993711278018     -0.01086744486466
  N   5.57835292723675      0.11536180798433     -0.01580114095914
  C   4.94669267170578      1.24970161611139     -0.01414932841933
  N   5.63919309448546      2.40364461922903     -0.01871735172948
  C   4.96019584411828      3.54365346326063     -0.01888189588547
  C   3.57640666576243      3.59463568926521     -0.01430875289289
  N   2.79528387898778      2.50194146067203     -0.00773952057700
  N   3.50070315209264      1.32557425378092     -0.00675716574666
  C   2.90875359557403      4.85977709485228     -0.01661116915308
  N   2.41416296850433      5.89812295904823     -0.01911323821919
  H   1.15700013237899     -2.42333458920015      0.00754832279230
  H   5.53009625389275      4.46585593149609     -0.02279968171153
