26
Coordinates from ORCA-job 9414optt
  Br  0.91817757553336     -0.00030209920964     -0.33995941035677
  C   2.80719807186293      0.04627169055486     -0.11633635816169
  C   3.49168968026348      1.25751630133924      0.07562769149467
  C   3.18633555758055      2.65470598683658      0.12621925940053
  N   2.12079524429805      3.37268637417729      0.06785958539663
  O   4.39338790462692      3.30032545471047      0.27239890270026
  N   5.46742528587929      2.37631134959338      0.32006763314519
  C   4.90459447634938      1.21498467935738      0.20475713154205
  N   5.59573998856910      0.01514282522034      0.21694207625039
  C   4.90121144556554     -1.15995683945719     -0.11414313497573
  C   3.52624625599105     -1.14714057948803     -0.22362648043398
  C   5.70149864492171     -2.42096700476745     -0.03577718247679
  C   5.00021801081518     -3.68615324757213     -0.52825156647072
  C   6.17442177703947     -4.58534825322481     -0.88067315608664
  O   7.19605778298506     -3.69669589750853     -1.34232239929184
  C   6.98756690775485     -2.44375608649272     -0.84582306912370
  N   7.78187699755152     -1.48585785029948     -1.02551813069697
  H   1.32058161474858      2.75812719616269     -0.03898047660543
  H   6.57507745937888      0.04799965506319     -0.03699306117234
  H   2.99451558132787     -2.07443149541028     -0.38031913032543
  H   6.03060848826434     -2.58494027418890      1.00728217279464
  H   4.42259822575169     -3.45343033703352     -1.42382559610513
  H   4.33796122530360     -4.12695112775709      0.21397344600725
  H   5.96844033967483     -5.29717287841045     -1.67805180453542
  H   6.55073794286327     -5.12582663966080     -0.00732567906012
  H   8.58103751509940     -1.77414090253440     -1.58720126285289
