21
Coordinates from ORCA-job 9418opt
  Br  1.08813677360564     -0.11283652591048     -1.06509055834177
  C   2.81691443370220      0.01556473974809      0.18512648515947
  C   3.61028323016701      1.14015870908811      0.10052384739717
  C   3.38529766782350      2.56532377164036      0.10833271501197
  N   2.35836332596390      3.31414906441046      0.14167998388376
  O   4.63861507511420      3.13975135849319      0.05318533421308
  N   5.65652974929675      2.15142037750110     -0.00499356666237
  C   5.01613927319498      1.03134479260469      0.01771044906292
  N   5.59571514803012     -0.21866313255997     -0.02979489790038
  C   4.84990901366858     -1.36279314625510      0.04024305623642
  N   3.50507775302260     -1.20184223874756      0.15943500662893
  N   5.51429892318918     -2.48503389555903      0.00267019863490
  C   4.93065000140450     -3.71371039481231      0.06781816980264
  C   5.63259940223627     -4.89136459630690     -0.10243010578837
  S   4.57233189046220     -6.17804713768144      0.08243057909120
  N   3.26631071121168     -5.19037134034756      0.36938507338369
  N   3.59542617358090     -3.96028140653743      0.33008360665443
  H   1.53089852748554      2.72260402724536      0.16112873708292
  H   6.59297369846146     -0.33442512909450     -0.10594529638214
  H   2.97240156207722     -2.05858034429212      0.24966906981939
  H   6.68312766630123     -4.98336755262689     -0.31516788698789
