24
Coordinates from ORCA-job 9420optt
  Br  1.14790401191812      0.52978819641444     -1.94276325203896
  C   3.04422889704355      0.53240298167803     -1.28867874195656
  C   3.33553404577347      1.13766660186107     -0.07258236347559
  C   2.90514947075168      2.39479825626778      0.48770735016156
  N   2.14016368968746      3.34292318107953      0.10783120050003
  O   3.52274184920766      2.48941641805966      1.71520400914692
  N   4.32002828760695      1.36691247709312      1.97135968394404
  C   4.19438281885339      0.60251828066936      0.93105460689836
  N   4.86461525997535     -0.61599946473122      0.87344706746534
  C   4.75460801914718     -1.32734137035903     -0.17338506833836
  S   3.85628809062194     -0.97603879333446     -1.64079282574647
  C   5.50787435842119     -2.64114103851353     -0.24781042486538
  C   6.82836987925515     -2.65302766239631      0.52628398333743
  C   6.95656326864641     -4.08756087091533      1.05678579456570
  N   5.57483259173493     -4.51291613035183      1.13965774357230
  C   4.70672139131129     -3.79754737962392      0.36895850556660
  O   3.54320538327246     -4.05733861475426      0.19153642142556
  H   1.76426148300037      3.10833033320039     -0.80661105161201
  H   5.65444255628167     -2.90591625707190     -1.29986645237915
  H   6.73393632131405     -1.95278440353436      1.35431559045758
  H   7.67894163011286     -2.36137930106674     -0.08636404731869
  H   7.43886974331597     -4.12087108952009      2.03397671399412
  H   7.52748080598143     -4.72343863597566      0.37149236867219
  H   5.27785614676514     -5.38945571417464      1.53524318802341
