21
Coordinates from ORCA-job 9422optt
  Br  1.28039840856916     -0.12136969833655     -1.60029155908169
  C   2.70787359969262     -0.05244940734217     -0.14542543855665
  C   3.38884954397094      1.14454996444493     -0.00098905806271
  C   3.02848984016035      2.53319510019897      0.11601772004380
  N   1.94041451450326      3.19427788148869      0.09737958813721
  O   4.22185372444804      3.21052649224509      0.28629797390882
  N   5.32714940100377      2.32667484453858      0.24332629906890
  C   4.78627672012270      1.17077639172085      0.07562787292135
  O   5.54357939473088      0.04892391836588     -0.07966133743921
  C   4.92772323954362     -1.14675478191402     -0.29230438469927
  N   5.62617371383906     -2.17194854632498     -0.55879020080434
  N   3.54712745183332     -1.19593964499289     -0.15188552624360
  C   2.93466969877822     -2.44736719940045     -0.00887909028568
  C   3.28602762794591     -3.67941942962940     -0.49896580440843
  N   2.30537959040514     -4.48148328534501     -0.03263508325422
  N   1.41340076922973     -3.80842173096651      0.68760801626174
  N   1.78941459145441     -2.57602994855901      0.70984932456502
  H   1.17089764398426      2.54562107423919     -0.04787092229734
  H   6.60697642606065     -1.90795248145987     -0.53957725170162
  H   4.11992451464655     -4.01063177790171     -1.08411904709123
  H   2.19439958507731     -5.47277773506959     -0.15571209098085
