22
Coordinates from ORCA-job 9428optt
  Br  7.66139125199391     -1.58491183079733     -2.45489375921779
  C   6.89040868378814      0.06864673603718     -1.85553598882328
  C   6.41721103557584      0.21111090190114     -0.52984229806747
  C   5.82300940700556      1.46690040306523     -0.15869651358558
  N   5.41843439619873      2.40600203209217     -0.94142291547127
  S   5.74845898766288      2.33287051791756     -2.59137052925392
  C   7.14569134936130      1.20831163911312     -2.64040129611104
  C   8.39890077668875      1.58428258007380     -3.13526039596624
  S   9.93762283050875      0.99172590206045     -2.44991126849154
  C   9.47193910425043      0.85335214953701     -0.77360536313256
  C   9.98192116426537      0.09255678663637      0.20562781047041
  C   9.24730428303413     -0.06828752755758      1.52046439984568
  O   9.81411174900945     -0.33963704982313      2.55430902543776
  N   7.88147339088729      0.17989775226054      1.37167567297731
  C   7.29214035828354     -0.44675803388214      0.41501433449060
  C   8.53509214164530      2.56505248563375     -4.17964678427692
  O   9.58187191803122      2.99146294602576     -4.63961078252690
  H   5.66318209698402      1.62729279810261      0.90495521812506
  H   8.60775375843492      1.46119927793515     -0.54016164947221
  H   10.89241621472306     -0.48538256886186      0.09371390429118
  H   7.66464021730704     -1.41952464029463      0.09684683956074
  H   7.56802488436022      2.92583674282484     -4.57824766080200
