18
Coordinates from ORCA-job 942opt
  N   2.07769779192325     -0.39697672779487     -1.36998653625871
  C   2.37684362161013      0.01567472610816      0.00162806832263
  C   3.16793659683343      1.29685152585093      0.01386191281582
  C   2.53487627913093      2.57976556917332     -0.56165006743642
  C   3.18461059772222      3.36929250962873      0.59563962317022
  O   4.40813420115787      3.98528957270111      0.25851452296003
  C   3.34320360263942      2.03549191689244      1.35642880110310
  H   1.70503499732666     -1.34357681571433     -1.35865655365692
  H   2.95571678429908     -0.45787822198609     -1.88420794256431
  H   2.94373506982529     -0.73985578434035      0.56464505130984
  H   1.42755268746847      0.17244021224610      0.52446691758418
  H   4.14115792316434      1.11294822265643     -0.45055285667990
  H   1.44545120832018      2.54969953081234     -0.48593190565595
  H   2.82685177909972      2.88553192770644     -1.56885825486019
  H   2.58605781360848      4.14706843857803      1.07124922514443
  H   4.99809459697482      3.32569776849638     -0.13462965827930
  H   4.28190851349926      1.90402716420700      1.89999762356120
  H   2.49813593539642      1.84450846477819      2.02304202942024
