21
Coordinates from ORCA-job 9430optt
  Br  3.89365219903765     -0.43950039815516     -1.88535961974796
  C   5.79986579274757     -0.35525444748804     -1.60308045197966
  C   6.26029116340461     -0.62082075443615     -0.24148535672155
  C   5.58612100622622      0.13925019763872      0.80616028506028
  N   5.22500170761335      1.36579406365403      0.64430489362220
  S   5.69999444792795      2.20851786945690     -0.72971167813108
  C   6.45389558350105      0.93611021107611     -1.72752378161780
  N   7.67197894479781      1.11553856849114     -2.18335811292341
  C   8.16954601223898      0.36229189677957     -3.20123074962962
  N   9.29523827969250     -0.25110036667448     -3.27704694327476
  C   10.11123913129137     -0.40579954108464     -2.14772249287005
  N   11.28212296472245      0.06821114558649     -2.02696749728362
  N   9.60693615329090     -1.22044757049754     -1.11232585317179
  C   8.22561316808661     -1.33004172777307     -1.02712398214384
  N   7.55234449893148     -1.00526249954069      0.01754380045291
  C   7.37815953830305      0.33627967609122     -4.44133128829633
  N   6.76412728792739      0.35596533292026     -5.40950893942705
  H   5.43309760292638     -0.28510111936636      1.79593944946824
  H   11.50424754731181      0.61318127340132     -2.85508613971940
  H   10.06200996747335     -0.99543481244325     -0.23595127263866
  H   7.73751700254735     -1.62437699763636     -1.95013426902702
