18
Coordinates from ORCA-job 9434optt
  Br  1.04321181362043     -0.18952711692450     -0.22900414459335
  C   2.93336252813884     -0.01309492664717     -0.08606410963329
  C   3.80440161022364     -1.09791913406235     -0.08563455158681
  C   5.20160392183711     -0.95400109189405      0.07375820596766
  N   5.91941917702766      0.14508583562720      0.21234922673498
  S   5.13954637410250      1.60603501658346      0.21065378651132
  C   3.36998603423572      1.34375499248681      0.04186826531366
  O   2.67912916405522      2.34715556911921      0.04727712734099
  C   5.86895326859389     -2.27991085690645      0.07901238784067
  C   4.77240054545962     -3.23554643301503     -0.09841814841988
  N   4.93929710504383     -4.51086820288513     -0.15794541548259
  N   5.10723406552811     -5.62432331925822     -0.20288566929323
  O   7.04789401975486     -2.53786540076285      0.19392264749416
  C   3.46357045743814     -2.55155730009878     -0.23073831246891
  C   2.35152934636701     -3.14378347421746     -0.98658622428480
  O   2.34257941924383     -3.11814271230640      0.43453045711079
  H   2.49836001031677     -4.12837943951044     -1.42374068871780
  H   1.62152113901277     -2.50711200532781     -1.46835483983357
