30
Coordinates from ORCA-job 9439optt
  Br  6.43595680155155      2.92092844114007     -0.90624856484749
  C   4.85161261665435      1.29136726583060      0.42033058852923
  C   5.58939659078170      0.52967943058453      1.30016749529946
  C   6.98231933068380      0.20009265534652      1.30925982299802
  N   7.39421514621009     -0.57370106362341      2.26108502580628
  S   6.10876985833294     -0.98059308899528      3.27530082305325
  C   4.92260589240674     -0.06843527349748      2.39845171693710
  C   3.58458953820577      0.12764575401505      2.63010355009699
  C   2.82296393506737      0.94671840357616      1.74764541547082
  O   1.63339394301721      1.22193987604641      1.87580436646538
  N   3.54932181441971      1.46658112459479      0.60786781065134
  C   2.76112933984198      2.28929022937827     -0.33903316768279
  C   2.91446047334732      3.76792590341477      0.00801955347345
  C   1.96121298657652      4.62338051438721     -0.83845125097085
  C   1.80429890346690      4.07713591871899     -2.27145958876743
  C   3.02402967580622      3.25151618034006     -2.66980495135409
  C   3.11839215643715      1.99065481130664     -1.80664303938503
  H   7.67918325071189      0.57732286016289      0.57023854368371
  H   3.05833649968674     -0.29623461618159      3.47217194879437
  H   1.72745370299752      2.00859208920296     -0.14631199839663
  H   3.95329036752821      4.05442057183001     -0.16500968743110
  H   2.70444374978624      3.90341633519299      1.07036962219071
  H   2.34701800145939      5.64448243859180     -0.87427387871190
  H   0.98224314126413      4.67389208474099     -0.35578910937973
  H   1.63944137303515      4.89827034229561     -2.97248424756086
  H   0.91747518668267      3.43693508313035     -2.32854562431091
  H   3.93486959276550      3.84056468979734     -2.53363381230980
  H   2.97936563607751      2.97216236465959     -3.72451102301422
  H   4.12826824830060      1.59043530064408     -1.87118157503706
  H   2.42794224689677      1.23161337336884     -2.18543476429020
