20
Coordinates from ORCA-job 9440optt
  Br  1.04533469121960     -0.08018734836130     -0.02226487706780
  C   2.93163980515317     -0.07461410658636     -0.03961037738840
  C   3.63088202793983     -1.28950531447149     -0.04564585709053
  C   3.16336808394172     -2.63756360355558     -0.04533034822712
  N   4.06546458928044     -3.58561812942901     -0.05094139753044
  S   5.59429506204384     -2.93408240772459     -0.05713994586313
  C   5.04374803161916     -1.29750179058765     -0.05272512062036
  C   5.74621794840441     -0.10039232386979     -0.05475649672510
  N   4.99733720765425      1.07698042431940     -0.05178940502971
  C   3.60486942445594      1.18769840878473     -0.04373597041769
  N   2.99855733748584      2.33412958521137     -0.04039592333576
  C   7.15200342270611      0.01093331934038     -0.05868660893131
  N   7.99625797094782     -1.01590447872833     -0.06231767486626
  O   9.25907119187061     -0.39602650607209     -0.06424860406362
  C   9.03234483008504      0.90793050522252     -0.06130984302427
  N   7.79942734771749      1.25035852527701     -0.05845385345581
  H   2.11372086616984     -2.90464076887538     -0.04111075045273
  H   5.52402401028952      1.93642477038835     -0.05429527001955
  H   3.67686694124051      3.09209408283507     -0.04422489523839
  H   9.89656920977484      1.55548715688276     -0.06201678065201
