19
Coordinates from ORCA-job 9442optt
  Br  1.11712816740479     -0.11640123018552     -0.08384171027955
  C   3.00299928977369      0.06051901583322     -0.09315931495843
  C   3.65633235433331      1.24396823602519     -0.09554988961765
  C   2.97399186709667      2.52075935717463     -0.09203760970661
  N   3.49740220301361      3.68997484355592     -0.09411274101116
  S   5.13429335973481      3.96844287422508     -0.10156889415478
  C   5.86780643172517      2.36126339064806     -0.10696967246515
  C   5.12898637277817      1.19900133743368     -0.10293526792718
  C   5.81090313828314     -0.06144512804509     -0.10645882441411
  C   7.27520315495568     -0.08361213230331     -0.11439138570095
  O   7.95358831923284     -1.12139393188055     -0.11604490850173
  C   7.83670838580774      1.24807204832237     -0.12082479220872
  Br  9.75093552978220      1.33464738331082     -0.13921514984859
  N   7.20573720998725      2.38501345163038     -0.11633017491046
  C   5.03990615070810     -1.22045048137372     -0.10306958491622
  Br  5.63411862946923     -2.99725371999083     -0.10675171377334
  N   3.64899011903914     -1.14025735407269     -0.09689272912344
  H   1.88734912695042      2.49897344015747     -0.08723931141403
  H   3.11762018992403     -1.99382140046511     -0.09760632506791
