23
Coordinates from ORCA-job 9445optt
  Br  1.05496039870325     -0.08014383017538     -0.05661652197490
  C   2.96330619454803      0.06688583742107     -0.05709883290341
  C   3.60123395004369      1.29613943322838     -0.05641877150007
  C   2.86007273661876      2.54239565322580     -0.05877443132660
  N   3.29385071323011      3.74633097335186     -0.05593877684821
  S   4.93190108562931      4.08732393294271     -0.04787672262835
  C   5.70711248773505      2.54160151143630     -0.05357823689960
  C   5.04698404674710      1.33108861810836     -0.05586584669323
  C   5.79816197470073      0.08608499563955     -0.05816476335452
  C   7.19609053352867      0.00215466530950     -0.05896673158870
  C   7.87067436761354     -1.23335150368864     -0.06034595394858
  N   9.15174481158781     -1.46852754371957     -0.06101436798112
  C   7.01390784650848     -2.46954391794520     -0.06139906233406
  N   7.44683639285673     -3.65209606900196     -0.06350448456041
  O   5.65775493695358     -2.31471768635703     -0.05998382015096
  C   5.04594627985211     -1.10104974066617     -0.05877242178637
  C   3.66333078685623     -1.13398875197867     -0.05790017982559
  H   1.77669696223220      2.45933708585642     -0.06412364960704
  H   6.78480867988479      2.60416773389576     -0.05477581283668
  H   7.80525230930886      0.89617931154624     -0.05863099799531
  H   9.65788426316867     -0.58511635414381     -0.06025218165402
  H   8.46502064678908     -3.57500028319261     -0.06399662330737
  H   3.15646759490313     -2.08715407109292     -0.05800080829491
