26
Coordinates from ORCA-job 9446optt
  Br  0.43113337000623     -0.73396037488329      0.00575821034865
  C   2.86775742263151      0.11741777464598     -0.02936763371273
  C   3.57195101962645      1.27193501167140     -0.12173979162700
  C   2.99568566180865      2.61480816976925     -0.25512312025106
  N   1.79540464294853      3.01230307649938     -0.34056723636383
  S   4.35617463567020      3.77877728307044     -0.29671705019039
  C   5.57277639749109      2.51618961312319     -0.16501197270882
  C   5.02634149324531      1.27773191728741     -0.07835317944372
  C   5.67977246156915     -0.01312535281121      0.02764786166297
  C   7.17788429962553     -0.12152457129642      0.03763641811391
  C   7.85812327322476     -0.06984281276685     -1.32404662542652
  O   8.85047766264485     -0.71858718042477     -1.57125036984250
  N   7.28543849881031      0.78223984224738     -2.24143307468319
  C   7.80664439592867      0.98863240158813     -3.50859658934041
  N   7.35257575887628      1.77364432244895     -4.39010677603883
  C   4.90457419993287     -1.11670855572288      0.11468239283791
  N   3.53447073804174     -1.05102817045153      0.09143924508217
  H   1.16702303904809      2.20562297987798     -0.29907710125462
  H   6.61760043212192      2.78526992693016     -0.12805499531083
  H   7.50780120725902     -1.05436354053594      0.49207898031605
  H   7.60230809091620      0.69636154242558      0.63197054145549
  H   6.46446275852538      1.30933862752224     -1.95533384621083
  H   8.69339649580952      0.39267893834807     -3.70190336928770
  H   6.51581302801865      2.26189549692047     -4.06597516818605
  H   5.33075003867723     -2.10788780198091      0.20982282773408
  H   2.96965897754150     -1.88581856350224      0.16662142232786
