27
Coordinates from ORCA-job 9447optt
  Br  0.99917325813442     -0.28557844402349     -1.75784627120711
  C   2.96377899498203      0.05549191214788     -0.08249078290679
  C   3.75427244731014      1.15732816349930     -0.13559926502096
  C   3.31336868063768      2.52487666850531     -0.43182050864877
  N   2.18191756388255      3.00994105972051     -0.73984678795971
  S   4.74836276122720      3.58936836226292     -0.28709743937767
  C   5.82732815024118      2.25769454322742      0.09369556419339
  C   5.18398014265621      1.07169285005052      0.13719038932537
  C   5.69712242461056     -0.25410302196619      0.39019598415002
  C   4.85206276940966     -1.29998758157153      0.42458357650490
  N   3.48566881187670     -1.15855888168992      0.23014542739913
  C   2.63134818041642     -2.33869286648616      0.30222331183204
  C   2.85758811929856     -3.31568362528270     -0.87441750829626
  C   3.14950095797620     -4.64950701264286     -0.18775247543966
  O   3.68892238813902     -4.31104016940348      1.08220032903915
  C   2.90961672772625     -3.21578480229821      1.53435823002919
  H   1.49924399166121      2.25301458154910     -0.81469067848676
  H   6.87954621615541      2.43700109050758      0.24900377314232
  H   6.75387029523631     -0.41978820481791      0.55258392246972
  H   5.18703106574219     -2.31327364794780      0.61262457736644
  H   1.61394143083177     -1.96251063618543      0.30240258060083
  H   3.71491849119690     -2.98009409465190     -1.45753747457106
  H   1.99351717885412     -3.33821722114913     -1.53491238660977
  H   3.87942880676696     -5.26722494098566     -0.70885273597442
  H   2.22889147451106     -5.23187088376843     -0.04934021704796
  H   3.45773467834138     -2.69430319090108      2.31746459766993
  H   1.96186399217758     -3.58719000569857      1.94353226782450
