24
Coordinates from ORCA-job 9452optt
  Br  1.39404938808561     -0.16487136813646     -1.93412419871190
  C   2.90425236360093      0.03964868786872      0.00433698375380
  C   3.66487832746657      1.13838914489939      0.15220183161648
  C   3.27415174252306      2.53873311090096     -0.05570853549175
  N   2.23138192468548      3.06682940510166     -0.53879655847501
  S   4.61978311572795      3.56659272348801      0.54509341824832
  C   5.63374382083284      2.18303990074710      0.90989261598123
  C   5.02357975906374      1.01324371965881      0.65117916070784
  N   5.60491680862473     -0.24366066542277      0.74283638229617
  C   4.88425926930854     -1.27791623368263      0.54650880541714
  C   5.54268870276798     -2.60976586314923      0.49564818320899
  C   6.95721242442203     -2.65878418145687     -0.02210586022751
  C   6.69798503102574     -2.85016090569883      1.43107336030844
  N   3.48503934093006     -1.19913524731899      0.30845141511457
  C   2.59102657026080     -2.24986185354394      0.50419988116312
  O   2.85370673108450     -3.33639201650660      0.95636260935460
  H   1.59191396658983      2.33204589504827     -0.85017784698866
  H   6.64672862056237      2.31394061136386      1.25517522557226
  H   4.90844012818997     -3.45021633197266      0.28253042168103
  H   7.38030256038844     -1.71279244318355     -0.32729738438224
  H   7.22529963000704     -3.52027145711505     -0.61764426918720
  H   6.94499502871138     -2.02293573958485      2.08156662596466
  H   6.79221762744937     -3.83956442746010      1.85562312651480
  H   1.58444711769096     -1.94213446484423      0.20017460656080
