22
Coordinates from ORCA-job 9453optt
  Br  1.16887191047817     -0.15754218386411     -0.07846955176162
  C   3.09453583389906     -0.05023345090777     -0.07269491123111
  C   3.72910844331642      1.19265363291160     -0.07588690401281
  C   3.22840162523771      2.55427396509542     -0.08261073100740
  N   2.06421043731522      3.08848130454239     -0.08752715966199
  S   4.64072502914297      3.65841389769855     -0.08378985653525
  C   5.79862236618228      2.34104659885989     -0.07613309925978
  C   5.17797228529571      1.14680963441970     -0.07255932829832
  N   5.77301180738734     -0.10413067310587     -0.06647515005254
  C   5.01582102797347     -1.26244240145753     -0.06329525741476
  N   3.66901063547089     -1.22282910013557     -0.06628604110359
  C   5.66400897023567     -2.50673019142157     -0.05674914710244
  C   5.14716355197073     -3.77027004261149     -0.05068273722964
  S   6.42604544124864     -4.95403593066326     -0.04542751984786
  C   7.64686697838899     -3.67607436456729     -0.05095328527590
  N   8.90577982046977     -3.76550845534710     -0.05031358243584
  O   7.05396451603318     -2.46316029030814     -0.05645209098924
  H   1.34234241904959      2.37577068305343     -0.08633035606817
  H   6.85986555678364      2.52708319118368     -0.07510396266200
  H   6.77581686360872     -0.18622409837336     -0.06429817044404
  H   4.10413045989766     -4.02662547968775     -0.04926945703162
  H   9.19772402061411     -4.73672624531384     -0.04569170057405
