22
Coordinates from ORCA-job 9455optt
  Br  1.18094022056850     -0.33974815787184      0.07734613296919
  C   3.08050541391774     -0.10739478643856      0.04058573296253
  C   3.65286263618623      1.16541247788817      0.00554079282931
  C   3.11229383487386      2.50320115052103      0.03214511670143
  N   1.92567668809322      2.99415042548968      0.05154748126635
  S   4.49078363536085      3.65024951081942      0.04559027798637
  C   5.68909425410917      2.36764377927427      0.01129918665764
  C   5.09272788055356      1.15694189472921     -0.01436665211340
  N   5.71122998350610     -0.08056102830968     -0.09954001254990
  N   5.04180390742225     -1.30063545367908      0.08326879679393
  N   3.74062579142113     -1.24757786291017      0.10004284285484
  C   7.11039842511523     -0.14247801849872      0.03831519532388
  C   7.84052375782297     -1.18621305918570     -0.71517777326706
  C   7.91668696017741      0.24615268744317     -1.19046788873139
  C   9.13166201672235      0.98524337749553     -1.00415860554605
  N   10.10332669766038      1.57288806995300     -0.83276345328897
  H   1.23458212675070      2.25035297043396      0.03973754476502
  H   6.74294278111940      2.59023615532976     -0.00897530018902
  H   7.52329045242947      0.19273755469143      0.98808109538569
  H   7.23619470877663     -1.85782403713063     -1.30564676017178
  H   8.72899084987515     -1.60521832898556     -0.26692947347727
  H   7.33185697753754      0.52544067894129     -2.05547427716133
