19
Coordinates from ORCA-job 9458optt
  Br  1.43379479510965      0.51339245286504      0.95090136385090
  C   2.90983478801448     -0.15141647924066     -0.33630648396282
  C   3.57320361797538     -1.33417281201206     -0.02324089058991
  C   2.91727428607689     -2.57516150244861      0.35999381853854
  N   1.69198424824833     -2.90318163310097      0.51707377977389
  S   4.18445012246453     -3.81164160297148      0.60158414994236
  C   5.48215120450308     -2.70944589835491      0.20543057904911
  C   6.85267766261841     -3.24724391921010      0.19055086386552
  C   7.85854893642542     -2.89786223410749     -0.82733285383172
  O   7.95759025637852     -2.39247528616020      0.49214788462530
  C   5.00811245887137     -1.46343629362484     -0.08471565270831
  C   5.84295816115778     -0.30133169905995     -0.36637486497899
  N   5.43896340179683      0.84770720243693     -0.75197999144651
  S   3.80218806237335      1.16285731125622     -1.01000638479486
  H   1.09979988282206     -2.09176845994920      0.35135043406133
  H   6.94871493386528     -4.23196232769482      0.64057420759100
  H   7.58395180060704     -2.16655980741610     -1.58160822538723
  H   8.62749057923015     -3.61150736945025     -1.10773432626693
  H   6.91531080146132     -0.40478964175652     -0.22030740733066
