21
Coordinates from ORCA-job 9459optt
  Br  1.02294008278038     -0.22493169151300      0.01793364406459
  C   2.89657241694254      0.03287210777468     -0.11089006936995
  C   3.51649791215863      1.30156813332473     -0.04221059592973
  C   2.95890922833336      2.62833661428062      0.08371818084500
  N   1.76308763523343      3.09448774177437      0.15920980995331
  S   4.29657537354073      3.80865459743027      0.13191575138667
  C   5.53632800339693      2.56571391987244     -0.01522872797519
  C   6.93489828069862      2.86580474005135     -0.00697179870983
  C   7.98729081550327      2.02130523408770     -0.13476074016002
  S   9.59334480244597      2.67404545533044     -0.06599798940919
  C   9.13333818822410      4.35968851083397      0.16626013615369
  O   9.91173358315885      5.26989686731707      0.28173325217710
  S   7.37627068931663      4.55754497669060      0.21165443673694
  C   4.93716952265124      1.33686458498404     -0.09916868005267
  O   5.69813825227229      0.21026239489468     -0.22562481668262
  C   5.04908200146305     -1.00281854433245     -0.30850203145170
  C   3.69904889983197     -1.11089679880693     -0.25035749076471
  H   1.08207885413863      2.34387325610095      0.11971353962414
  H   7.88268138610067      0.95869691115482     -0.27232881393402
  H   5.73904458866288     -1.82214018177824     -0.42339480982640
  H   3.25496948314575     -2.09382882947213     -0.31670218667541
