20
Coordinates from ORCA-job 9460optt
  Br  1.06652742252092     -0.30669309696825     -0.08028005216079
  C   2.93378647783745      0.05427414810010     -0.07701396667396
  C   3.49725083023233      1.30143839452685     -0.07590544122335
  C   2.92820838750123      2.62788980756959     -0.07689457160845
  N   1.72670530646608      3.07857056529059     -0.07956152672931
  S   4.26699457545534      3.80365920296336     -0.07358805808101
  C   5.49748389785916      2.53716310367757     -0.07147140197879
  C   6.88641268927344      2.88836631240184     -0.06882393479500
  N   7.31426453763663      4.15464925874195     -0.06728493167336
  N   8.63269622732068      4.04263832262465     -0.06515733050192
  N   9.11615346087073      2.81919237681924     -0.06526240707384
  C   8.03587058809720      2.05483324746284     -0.06762317233703
  C   4.96660123120205      1.27535808418443     -0.07296132192704
  N   5.69316271643078      0.12745752718695     -0.07204097576319
  N   5.08969861829779     -1.05370897795508     -0.07332644261468
  N   3.70405945471784     -1.03096367708730     -0.07565340689253
  H   1.05456538028652      2.31774561183844     -0.08116266937941
  H   9.22935363150873      4.84957205800469     -0.06338302209387
  H   8.07630466247406      0.98082028156874     -0.06836448267521
  H   3.29289990401098     -1.94826255095120     -0.07624088381728
