24
Coordinates from ORCA-job 9461optt
  Br  0.94167279617091     -0.56497987018954      0.12053117060540
  C   2.79882869423610     -0.23514321372180     -0.11790667456659
  C   3.41378121713674      0.99107266001350      0.20271902419601
  C   2.89476927620045      2.20745744522707      0.76247544136572
  N   1.73509269953287      2.58922783280733      1.18557401524268
  S   4.22768211023818      3.40435996166065      0.86113818623594
  C   5.40685698197129      2.28921930784070      0.19706201581829
  C   6.83992433836978      2.65557649628423      0.01345714005336
  C   7.58165479232956      2.89807150181888      1.29960607980093
  C   8.54905931719578      3.81081876313142      1.58976921199929
  N   9.06857219285727      3.77311855967326      2.85897450395972
  C   8.49001624203301      2.83348252471019      3.53954589172264
  S   7.28366873531137      1.95039244215641      2.69897324199066
  C   4.82422181927624      1.10276987861012     -0.07723988705925
  O   5.55846682296287      0.06360622268128     -0.59260121288947
  C   4.89618061671760     -1.10467679711855     -0.89717276124550
  C   3.56774380777432     -1.27166668174559     -0.67690404161455
  H   1.06207201573343      1.83592541741490      1.09011021962957
  H   6.94741537367628      3.55824468649514     -0.59851365055346
  H   7.32421536959983      1.83978427969201     -0.52925302209798
  H   8.91302278882040      4.54891752770950      0.88848966954678
  H   8.72509992867031      2.61256832743525      4.57125124085390
  H   5.55750512357503     -1.84654789837365     -1.31393358068259
  H   3.11447693961027     -2.21659937421275     -0.94015222231148
