21
Coordinates from ORCA-job 9465optt
  Br  1.22414943855906     -0.14704608053768     -0.40358972979653
  C   3.09499583492532      0.11695385654663     -0.26365871560348
  C   3.72484123990645      1.23789874753859      0.13774630181235
  C   3.18558702622083      2.58193957049962      0.44893570612034
  N   1.99239751786858      3.00662796952345      0.57336277714463
  S   4.53921945623258      3.69378624046353      0.63494464408554
  C   5.77031855269329      2.44600309800569      0.38124865288260
  C   7.11459883139810      2.80371190805175      0.18294223345924
  O   8.05285535665112      2.13512607544285     -0.20782440889253
  O   7.30624116273783      4.18402900867035      0.48394195514837
  C   8.52742311071819      4.70865451269115      0.28211781189091
  N   8.81185201318276      5.91636529052310      0.51526070389327
  C   5.17358434039768      1.18315573821980      0.22872172555236
  C   5.67802199148352     -0.13930630832402      0.39534278006517
  Br  7.29030844579639     -0.44332944570230      1.35076460065089
  N   5.04521162958503     -1.22105051033402      0.08965222350922
  N   3.85216654275235     -0.99803272366320     -0.62185224820895
  H   1.32041396651774      2.25583737129783      0.45213033369377
  H   9.25926871750650      4.00458955762196     -0.09968861113108
  H   7.98540950865015      6.40081952121304      0.86879336181032
  H   3.33113531621648     -1.85973339774815     -0.66929209808639
