23
Coordinates from ORCA-job 9467optt
  Br  1.11597713354411     -0.25957881778792     -0.06062901279108
  C   2.98818574107304      0.00854983422999      0.11425805356801
  C   3.63032553784456      1.22305732508724     -0.20576502360057
  C   3.12606140881982      2.47471551089088     -0.70188202591483
  N   1.95484984706203      2.90985871384609     -1.03107922384597
  S   4.49046468743822      3.62639775484062     -0.86793952305634
  C   5.64740717429940      2.44835488388808     -0.26756804458357
  N   7.01789565779671      2.74286301649859     -0.14979332290881
  C   7.52150332828694      3.53077178871752      0.86895050402968
  C   8.83579416917268      3.75942989204946      0.82395920197247
  S   9.54911474258299      2.95561128598488     -0.55484966582761
  C   7.96242020433528      2.32089924031445     -1.07810909922557
  N   7.70292934276933      1.61263148163036     -2.09558191373927
  C   5.05130720795741      1.27043539439684      0.01260547166208
  O   5.77400420281658      0.20961939202634      0.46834691495878
  C   5.09081243305173     -0.94668769530995      0.77014228390626
  C   3.74913088791399     -1.06585246403342      0.60820796771224
  H   1.26174282046612      2.18028099028086     -0.90213696508936
  H   6.81909778463469      3.89629393792309      1.60152738947068
  H   9.42350038059810      4.34118863219164      1.51122722824114
  H   8.53572220384076      1.42272634966188     -2.64164986048080
  H   5.74800598387350     -1.72012183700397      1.13160421924350
  H   3.27874711982192     -2.00444461032357      0.86415444629895
