21
Coordinates from ORCA-job 9468optt
  Br  1.12120439110528      0.34519848994108      0.32345784236118
  C   2.97262458512508      0.03443412310319      0.10759866887876
  C   3.52786627335693     -1.18391880086979     -0.07918520901942
  C   2.74425375274102     -2.42680308014313     -0.35096434938681
  N   1.69233958595163     -2.49624595161179     -1.05558340579635
  S   3.32597059098955     -3.91828291845330      0.37677593966651
  C   5.07591662569865     -3.62047268210480      0.27358861237656
  N   5.64380259187085     -2.47261137058913      0.01325504727749
  C   4.99379333111955     -1.29807810300248     -0.06589346301861
  N   5.75148312150580     -0.21890978951974     -0.10362482665520
  N   5.11530390222248      0.97570593667607     -0.07516492381468
  C   3.79590164191004      1.24588848805705      0.16684055317444
  N   3.29687669505685      2.41432567495744      0.36295024881275
  C   5.82485861375287     -4.81396175271356      0.53757222361753
  O   5.28672242010883     -5.89577562745443      0.83907701460723
  C   7.27355745318278     -4.71102191615657      0.44883896273840
  C   8.47287438573628     -4.69210874572998      0.38538468311285
  H   1.40210833042975     -1.57519417838589     -1.37704106890998
  H   5.75199936509401      1.75589672627780     -0.07367728833708
  H   4.02753107780405      3.12359588907720      0.36025665673316
  H   9.53301126523769     -4.65766041135524      0.32653808158127
