25
Coordinates from ORCA-job 9472optt
  Br  0.60872506182752     -0.57470568561945      0.22629824006725
  C   2.97306055469068      0.15902918876600     -0.25651536021511
  C   3.60317427462851      1.34865849280752     -0.27293295301203
  C   3.02977387019064      2.65594736046244     -0.57871804580526
  N   1.85225687331425      3.03131555839906     -0.85009426093562
  S   4.36173692364223      3.86900242565705     -0.49584484552128
  C   5.54910013797009      2.65199647420269     -0.02740973934253
  N   6.88839238004960      2.97347082119137      0.20045224829555
  C   7.38900052690484      4.21064882615871      0.39822511204917
  N   8.61239729969655      4.43006743156699      0.68818445166221
  C   8.97198052287207      5.81745810603789      0.88379164996106
  C   9.95314401927118      6.29303333293540     -0.10115010701161
  C   10.74936283407995      6.69702100111339     -0.90069621356319
  C   5.02605704424535      1.41674473965150      0.04488514070684
  N   5.73831941034590      0.26154085970858      0.37831330364439
  C   5.06235187356500     -0.82535434369213      0.38702963144701
  N   3.73016320674028     -0.93528482156474      0.08186490679829
  H   1.22921611294632      2.21956289969731     -0.82625517874404
  H   7.50767221326468      2.18672056672771      0.34451930538099
  H   6.64920832375100      5.01022439551336      0.28601119505761
  H   9.41745004017561      5.93693345464943      1.87652570198600
  H   8.10253704379165      6.48971357162097      0.84509755547482
  H   11.45273952650870      7.04483441991318     -1.61743354202653
  H   5.55575647110147     -1.75789088878838      0.64603302408507
  H   3.24942345442551     -1.81568818711601      0.18981877956095
