18
Coordinates from ORCA-job 9474optt
  Br  0.93115035756594     -0.63986868624788      0.35677542438717
  C   2.78421022427113     -0.35603723556581      0.07121930851259
  C   3.30298014837931      0.87502187578542      0.05266273037128
  C   2.71734579669324      2.20564823590206      0.30579294567258
  N   2.65482527243044      2.98277804737393     -0.69992262774102
  S   3.39604823601243      4.47853158627705     -0.29776157939497
  C   5.10547205434398      3.83087671538670     -0.05941157363542
  O   5.90970570737605      4.71432376881311      0.10382823951019
  C   5.43469464956017      2.38990313670186     -0.10665406346334
  C   4.70798052962457      1.15316210170997     -0.11947019404738
  C   5.66932055629167      0.11323458965604     -0.11217881293899
  C   6.91712207755827      0.79391512428779     -0.11644688491402
  N   6.77295729281297      2.11107010217540     -0.10797614727743
  C   5.34365386635609     -1.24697305434060     -0.05458596443673
  S   3.70232892872635     -1.82353256049203     -0.18748352289701
  H   2.79721454999796      2.57627668967367      1.33542424926127
  H   7.89882818851857      0.33894431813230     -0.13997364702133
  H   6.07616156348082     -2.03527475522900      0.03716212005257
