20
Coordinates from ORCA-job 9477optt
  Br  1.33324185464835      1.07808031211296     -2.33897936357774
  C   2.74351681793844      0.56410455187828     -1.15463781087420
  C   2.66690384003947     -0.68423637935979     -0.59491680147655
  C   1.75589058383686     -1.81192389749406     -0.79258015896440
  N   1.13176363384283     -2.20538000244198      0.24931083008835
  S   1.40027485671914     -3.88411501867531      0.46158446103106
  C   3.19349206379756     -3.70954810067480      0.79734887254718
  O   3.72179355447871     -4.75140531769323      1.12522912156462
  C   3.91897770122796     -2.44196775165360      0.76783384299543
  C   3.72905831158867     -1.17059808236696      0.24863344932714
  N   4.70517241030878     -0.20164709390419      0.43326625278549
  N   5.82093823061143     -0.39313716538451      1.20031195608717
  C   6.49530456311655      0.72280234464677      1.13302725560046
  C   5.86766803522337      1.73279245829805      0.30186876879907
  O   6.25109969284590      2.88182387402785      0.03334327983560
  C   4.66262367856630      1.04655217119077     -0.14446099597969
  N   3.69505645748107      1.45711313745660     -0.95316835287223
  H   1.95683398441216     -2.47887817845591     -1.64126128899709
  H   4.88096111437543     -2.57930776175192      1.24346290939970
  H   7.42742861494098      0.82587590024497      1.66778377268062
