22
Coordinates from ORCA-job 9478optt
  Br  1.13804826380682     -0.16783261598109      0.23219502237543
  C   3.01016334035488     -0.02973627792895      0.02057809253105
  C   3.67433322134788      1.15700114622808      0.17957056549963
  C   3.04903715960738      2.37861572611810      0.58829499345704
  N   3.51769268168324      3.57253158279389      0.47262808039836
  S   4.94053159832254      3.83701928254443     -0.37053729282256
  C   5.71622471392045      2.24940345508588     -0.63371049791787
  O   6.75881102090900      2.21758743875629     -1.23673745394797
  N   5.09895293828614      1.17151746042364     -0.04913423819476
  C   5.72432539719223     -0.08860354402807     -0.02613546267682
  C   4.99531509011098     -1.24557546746241     -0.20433487692578
  N   3.61247997632526     -1.21501373609201     -0.32836204069136
  C   5.83370027391953     -2.39426322265645     -0.01624393726960
  N   5.63929489737258     -3.67212896059566     -0.10493720341204
  N   7.06403733445596     -1.85178041610300      0.33474006831272
  C   7.05964812737446     -0.44254615664485      0.38118553778244
  N   8.01481001898201      0.32598364587009      0.76724338783415
  H   2.07150416285137      2.29795074725570      1.05539491549796
  H   3.10093083609853     -2.06332377636994     -0.14265156674531
  H   4.68642329868359     -3.86012374576281     -0.40499283805895
  H   7.89638165948063     -2.41242334567485      0.37948160961528
  H   8.82035398891447     -0.23025921977600      1.04746513535896
