18
Coordinates from ORCA-job 9479optt
  Br  1.35224151214464      0.42982639881873      0.88448732492536
  C   3.15823050231756      0.08010577558718      0.44269826714049
  C   3.67344957082117     -1.11679346632423      0.11218342738569
  C   2.84592854794077     -2.31894483447584     -0.14444620759878
  N   1.71550162890940     -2.36204055874718     -0.71716886868554
  S   3.52570554207548     -3.83785105919356      0.42449678166730
  C   5.34306406049968     -3.55275539540314      0.31683081677242
  O   5.97759837245394     -4.56535113554287      0.49036508126548
  N   5.85131004997461     -2.33925039497012      0.06588537013945
  C   5.15586126582607     -1.21659031094664      0.03836784011848
  C   5.83513225136603      0.00830532036851     -0.05530239677589
  C   7.24076719457257      0.03392386100182     -0.28180760734729
  N   8.37012662262414      0.11370537348100     -0.47865444484086
  C   5.15747094220821      1.22872537691585      0.10416600550420
  O   3.84892504821669      1.20949481932315      0.58293420277543
  C   5.68233235200681      2.51462029119496     -0.02950033885102
  N   6.10473749162176      3.58768899200233     -0.13515108428854
  H   1.40861704442041     -1.43481905308994     -1.00338416930639
