21
Coordinates from ORCA-job 9480optt
  Br  1.49281595872521     -0.84210056652440     -0.06558086726275
  C   3.33643214416656     -0.38934898742399     -0.06758750704988
  C   3.79051990435462      0.91368026185878     -0.06723676481141
  C   2.99804167039785      2.16121975381716     -0.06524040671721
  N   1.75374330767756      2.44471760998741     -0.06427189795087
  S   4.18158992931964      3.47237787661740     -0.06427231507289
  N   5.56359183775894      2.51405878504327     -0.06692975724350
  C   5.24544590860310      1.25801943871272     -0.06845820440995
  C   6.13862695099812      0.13774690660716     -0.07129101769101
  C   5.50052013641546     -1.06333572491442     -0.07146901007075
  N   4.20176730346483     -1.42366117348984     -0.06953007445503
  C   4.27603924349542     -2.95701507956069     -0.07047383910716
  N   3.27131030857604     -3.73461691470540     -0.06864210679756
  N   5.59758059917697     -3.31253140790578     -0.07331926529313
  C   6.33536041426624     -2.18741610575710     -0.07381243332404
  C   7.66211158416369     -1.63752266146095     -0.07548335281803
  C   7.54588890581382     -0.24611401535471     -0.07383711768981
  H   1.17418637843293      1.61475025907446     -0.06514161629716
  H   2.39731255072003     -3.22554861257232     -0.06638158841266
  H   8.59230708984343     -2.18426724665475     -0.07752929939954
  H   8.37480787362951      0.44490760460599     -0.07451155812565
