22
Coordinates from ORCA-job 9485optt
  Br  1.10174455735534      0.37463930730931     -1.41551170879457
  C   2.61491445592660      0.23113729022912     -0.12283604481325
  C   3.48662721277359      1.30609554428285      0.06048502174111
  C   3.06527744656013      2.68800567706648      0.22663865093028
  N   1.91720952004493      3.25159254087461      0.30830326820308
  S   4.56324874968974      3.62610767863733      0.34364632327259
  N   5.60376893029199      2.31982303352778      0.22288851431221
  C   4.92955619829721      1.21650318280951      0.09269529739209
  C   5.62876051450341     -0.06819983792119     -0.07786401338190
  C   7.09705061588668     -0.15858281250654     -0.21430209430127
  O   7.91880324902214      0.60899657520271      0.22011759492778
  C   4.94024133291909     -1.23626570212754     -0.15164612280267
  N   5.59180857165375     -2.49294021487915     -0.17309455099492
  C   6.23291509983900     -2.87084048723767      1.08500537945015
  C   6.78284060701002     -4.22610338381021      0.98462684271832
  N   7.18884490765132     -5.29447477348596      0.90997082817038
  S   3.21202824453768     -1.39299105311755     -0.06745528469497
  H   1.18050202607489      2.55476957048179      0.22518180264682
  H   7.42228000647974     -1.04941072878482     -0.78631631409960
  H   4.96149636463804     -3.22258754488026     -0.48407236387289
  H   5.54019718100448     -2.84321617215915      1.93490430756488
  H   7.05088420784011     -2.18405768951143      1.30263466642634
