26
Coordinates from ORCA-job 9486optt
  Br  0.93279559290451     -0.10108978106281     -0.14727074820374
  C   2.84063730509081     -0.05620434010680     -0.01787487787126
  C   3.53601634567565      1.16817389435887      0.04133355311803
  C   3.10899583697900      2.54530352806243      0.06857763571260
  N   1.97480643253059      3.15338634093034      0.04758783746003
  S   4.61456817851921      3.49594947000646      0.15334172789266
  N   5.67649694193017      2.17985105426609      0.15984365321060
  C   4.96856443174248      1.09251170584538      0.10016619795751
  N   5.57796380628913     -0.14543369855511      0.08899331392161
  C   4.88062428615939     -1.34802523226236      0.06291201450113
  C   3.48078249249276     -1.27573460000615     -0.00172269451866
  C   5.60572320306498     -2.56603445850216      0.07475476221502
  C   6.95740269585115     -2.74665075919449      0.05889165283311
  C   7.33129274472773     -4.20360100539050      0.00438249400312
  C   6.02763057509248     -4.89918397810869      0.43278233856912
  C   4.91204608930299     -3.91521929987544      0.04917901784170
  H   1.21402072538105      2.48384140038472      0.00080637265850
  H   6.58001469133252     -0.15141762544058      0.18026907263457
  H   2.90911382652965     -2.18958756187093     -0.05139944990939
  H   7.69740387852145     -1.95947622507451     -0.00151759304016
  H   8.17085995852810     -4.46644197290050      0.65378116279753
  H   7.61800099616964     -4.50708000273899     -1.01222243848121
  H   6.03387600580855     -5.02271477983516      1.51775991329388
  H   5.89814247540236     -5.88607351071149     -0.01415751307398
  H   4.06265451673232     -3.96835943309729      0.73185188209738
  H   4.52956596724123     -4.11968912912031     -0.95704928761974
