19
Coordinates from ORCA-job 9499optt
  Br  4.67262199628520     -3.18888698318431      0.20152885932588
  C   4.25689762147204     -1.34885414695959     -0.10247511416699
  C   5.31182580795997     -0.37162201097464     -0.04048521674707
  C   6.55600134045889     -0.76938421271933      0.53320234819662
  N   7.76483117087420     -0.29864566342916      0.44431692991464
  S   8.19451154026494      0.73247207839232     -0.74325543241080
  O   7.68370439102731      0.27695604975916     -2.01487543581797
  O   9.59917274659497      0.98254566988773     -0.61889556693961
  C   7.28615808080102      2.24586711255309     -0.26100354693494
  O   7.91334729732700      3.25694668578793     -0.03745322501151
  C   5.86398055051429      2.11239765728362     -0.26791938154408
  C   5.04881716630166      1.00070475979192     -0.34613311393544
  S   3.41236412735765      1.53487722490712     -0.78326783890748
  C   2.42584543271014      0.12826568653550     -0.68550985775247
  C   2.92093975203662     -1.11217936604779     -0.40034651337265
  H   6.48147893437180     -1.61532273793434      1.21262003296497
  H   5.37324305046662      3.07995080052527     -0.29756132175571
  H   1.38276556818223      0.29623872476714     -0.90925796244144
  H   2.23949342499341     -1.95232732894163     -0.41122864266394
