21
Coordinates from ORCA-job 9500optt
  Br  1.09627260784693     -0.12393483345248     -0.49658305043205
  C   2.95778133458193     -0.18215719246758     -0.19781498003430
  C   3.60919072963039     -1.31238152909593      0.17956707344084
  C   2.91886359933610     -2.63041541903041      0.47217657482243
  N   3.05351902950570     -3.68721487972260     -0.52292322061617
  S   4.51003988940631     -4.56104258408703     -0.40952881249905
  O   4.51135926512883     -5.04894474669689      0.95042077095661
  O   4.45325257664714     -5.48824159580014     -1.49971706715599
  C   5.76949388795426     -3.34159462402712     -0.61597620972901
  O   5.98416627848759     -2.90296547339040     -1.77926235519387
  C   5.83715631371753     -2.41700812684506      0.57327172675498
  N   4.96391632719116     -1.21709391493253      0.36319696248448
  N   5.63511595348831     -0.08619570737907      0.19702955757823
  N   5.06470095352661      0.98905416323621     -0.12868844015762
  C   3.67585384322354      1.06269886379787     -0.38011628094604
  O   3.17603162226787      2.11712946669404     -0.70699369475349
  H   1.86232246414412     -2.41784815193507      0.61102652297473
  H   3.29796906911630     -3.03324584751398      1.41304560888869
  H   2.94836056228514     -3.35948999188902     -1.47927985535846
  H   6.83060332259201     -1.98349808843607      0.66907661356121
  H   5.54803036992217     -2.90860978702670      1.50007255541385
