24
Coordinates from ORCA-job 9503optt
  Br  1.12750068723633      0.48688407211903     -0.39638193912089
  C   2.84993695988035     -0.19075799524117      0.09163371288548
  C   3.22286862014120     -1.49456260946230     -0.15825095611418
  C   2.30688539982933     -2.44961242682214     -0.89819339922787
  O   3.00169976257605     -3.33674092366974     -1.76791930817465
  C   3.94488112701535     -4.09185411421229     -1.07999487105982
  C   5.38271699658589     -3.79788208089222     -1.34581681378023
  C   4.74788675958924     -3.40980955438886     -0.01490114199535
  C   4.91506871451758     -4.43692943297186      1.05195435044883
  C   4.29417760143212     -5.57335833079350      0.74026854316243
  C   3.55843884452285     -5.47615960278961     -0.57898906378617
  C   4.44792025512701     -1.99281733427151      0.30779862060488
  N   5.39846521664087     -1.36013216581119      1.04350101895881
  C   5.31018992503791     -0.12014264058286      1.46885874116078
  O   6.07838427339267      0.51920244457651      2.16125186651190
  S   3.81240445932941      0.93317184205041      0.99322793898846
  H   1.61387197032642     -1.90112037011994     -1.52968913925913
  H   1.71981508805668     -3.03631343409451     -0.17744212448072
  H   5.56958653800625     -2.98170796191476     -2.03013440860130
  H   6.09541261654080     -4.61382724978243     -1.34864283461871
  H   5.48324393178218     -4.23529905582887      1.95013266988612
  H   4.29592177188517     -6.47177749787566      1.34505953925424
  H   2.47325470436629     -5.53169602702536     -0.43906771422296
  H   3.83446777618199     -6.26775755019514     -1.28126328741995
