27
Coordinates from ORCA-job 9506opt
  Br  10.33544181656274      5.11205932860534      1.41267663317872
  C   9.01558426336703      3.94606529350429      2.10971535809181
  C   7.91611393451714      3.58671474360731      1.33105430933072
  C   7.56180292805254      4.01107652677811     -0.05847420305288
  O   6.18896865746872      3.65839356799740     -0.19744624173342
  C   5.86169156546597      2.62763126499503      0.70777415246588
  C   6.92803005285935      2.73060109544730      1.80034057138851
  C   7.01927320020285      2.22422826270692      3.09344298081546
  C   5.93381932889236      1.47617542951363      3.82746802114572
  N   5.03611781848669      1.04046035020791      2.77905673016361
  C   5.62867006561016      0.17443883893331      2.06087990750748
  N   5.42132897899454      0.14515792248919      0.68024369270347
  C   5.79560394203340      1.28814812914809     -0.05891373381189
  N   6.05413203801137      1.24901774200634     -1.29994048057799
  N   8.04688222732027      2.73241607296319      3.89915627495625
  C   9.13552656723022      3.52195778463289      3.46158113863899
  N   10.11824945679640      3.82290647514343      4.25296213753502
  H   8.16215639753612      3.49773090392836     -0.82202556835753
  H   7.65821680742501      5.08799229376898     -0.21244720780003
  H   4.86225416799382      2.81999305984450      1.09811246104959
  H   5.40589280656717      2.11580118216734      4.54627709759538
  H   6.37287762003925      0.63264034124874      4.40314585697578
  H   6.43215302536251     -0.47379143110964      2.43776373534016
  H   5.68327659020899     -0.71370300116671      0.21666938854911
  H   5.96590021646476      0.29755288720439     -1.66091423286615
  H   8.24617080310245      2.20430355780731      4.73657878080028
  H   9.95586472342758      3.42903137762681      5.17726243996780
