17
Coordinates from ORCA-job 9509optt
  Br  0.97381839045245      0.78335904064840     -0.65435882581118
  C   2.68859625925831      0.44257577060010      0.15621105132652
  C   3.22910892919356     -0.84013273004615      0.02769612692968
  C   4.62304069574794     -1.02710357862272     -0.02908901352931
  O   4.93448273675896     -2.41834490307574     -0.08200202187916
  C   3.74690892292065     -2.99365111703179     -0.10049684815536
  C   2.66654174143687     -2.17077133661683     -0.04434303612564
  C   1.62215572662048     -3.12286796053959     -0.07681078228692
  N   2.07150209220323     -4.37070947023401     -0.15029017054510
  O   3.45586901669897     -4.27558793382095     -0.16360837784489
  C   0.20338802789064     -2.93736292054497     -0.03254452427489
  N   -0.93378463709476     -2.79753840558623      0.00737500942068
  N   5.63568897598445     -0.20956214925905     -0.06551851823346
  C   5.41088350404169      1.12890440192684     -0.00772991471169
  N   6.28449994216466      2.05219868079537     -0.13049837813330
  S   3.75558889219291      1.79898923096337      0.34829136856284
  H   7.19071078352886      1.60660538044396     -0.27328314470881
