20
Coordinates from ORCA-job 9513optt
  Br  0.91241064211221      0.34658428451320      0.50883976786896
  C   2.77100793379957      0.20938880562016      0.21428469974586
  C   3.35805210984843     -1.05601179680176      0.13218883200126
  C   4.76758988187764     -1.11759712068025     -0.10840270612839
  O   5.22115819264818     -2.42072538973578     -0.17658913503626
  C   4.10961714381294     -3.19077717072813      0.02799819301700
  C   2.97584415030279     -2.40606056339093      0.21508173773328
  S   1.52509390507178     -3.34896561496275      0.49389133073708
  C   2.50189778675688     -4.76662858749541      0.34564371398624
  C   3.84067070652653     -4.57144391417151      0.10191149197070
  N   4.44790138521690     -5.82100390538541      0.01315631134358
  C   3.47997916325880     -6.64845985103127      0.19838162456578
  O   2.25417471275269     -6.10071358764245      0.40872326688731
  C   5.51209184473931     -0.00544405891353     -0.23899734429613
  O   4.91000142181415      1.23090052100779     -0.13896735415788
  C   3.53908334372748      1.39624241479962      0.09245727740821
  N   3.09677697538813      2.59912264111155      0.17408101306130
  H   3.52301843842775     -7.72502898904677      0.20718231893109
  H   6.57265302897065      0.04397119289198     -0.42056908310114
  H   3.87397723294714      3.24165069004165      0.04770404346215
