25
Coordinates from ORCA-job 9515optt
  Br  1.27227753432118     -0.20602000715988     -0.96716415057676
  C   2.98275325222784     -0.02071901709754     -0.10752891012826
  C   3.71782603907810     -1.13834031371184      0.14696253272251
  C   3.64158574552714     -2.56254772471826     -0.34979117424549
  O   5.01142806172103     -2.98311649409137     -0.48439975878667
  C   5.79410176990203     -2.23101744886365      0.47197126046056
  C   7.08458844725182     -1.60459625906313      0.03016647038051
  C   7.07724320566975     -0.22406204461427      0.08128847823941
  C   8.38935952419643      0.21422486262662     -0.24274852597588
  C   9.14150212675598     -0.91764999300347     -0.46593244790689
  N   8.34594884997077     -2.02299795108282     -0.28059343869772
  C   5.71168874284870      0.22162213852890      0.40261231592718
  C   4.99484846313332      1.35530182566503      0.14266537904178
  C   3.55403241329530      1.28942108520646      0.07634372191482
  C   2.79756602923423      2.47003876867926      0.00504975525043
  C   2.17506816571692      3.50878687114934     -0.06766357238470
  C   4.99592874839863     -0.98343158469622      0.70711766077884
  H   3.16195480397684     -2.64284368462998     -1.32545924062187
  H   3.11962262279140     -3.22455402680943      0.35390539038587
  H   5.94135989295544     -2.88286009472584      1.34693050036913
  H   8.75627017712151      1.22551557588555     -0.30941525130784
  H   10.17415078934111     -1.02420800401569     -0.75492932712357
  H   8.62926621481117     -2.97296713378383     -0.43615725608857
  H   5.47466138391633      2.29528454518792     -0.10562853499868
  H   1.61596699583684      4.40973610913815     -0.11760187662813
