23
Coordinates from ORCA-job 9516optt
  Br  1.06797927326386     -0.38935028135673      0.35313833852869
  C   2.94593706747048     -0.06254944325965      0.29085167188784
  C   3.81886732046246     -1.14857168379149      0.23694379511610
  C   3.41390308377911     -2.59114387872285      0.13553966182409
  O   4.62454691455616     -3.33567393665552      0.17640461185916
  C   5.74101856222482     -2.46844322847512     -0.00141378788725
  C   6.84083846874499     -2.87514353745467      0.94469791586652
  C   7.06172473913768     -2.14318088178179      2.20788626492095
  N   8.00936462221608     -2.01838551733413      1.09333819132942
  C   8.16106079148096     -0.75916046444589      0.43608091191015
  N   7.29775440660015      0.16905661815677      0.14576915290354
  C   5.96246169194257      0.07811636936734      0.20858915962705
  S   5.12526405094759      1.63349127001409      0.19714934614750
  C   3.33493712186172      1.29422686015253      0.26590716612685
  O   2.62764061534237      2.28861167735736      0.28164541996974
  C   5.19221001935385     -1.08803784839889      0.19933552362448
  H   2.87387819868767     -2.78333339050596     -0.80091734442540
  H   2.77155265120569     -2.90680504352318      0.96132069626456
  H   6.12808535886388     -2.58328936564053     -1.02696195631305
  H   7.07817785460047     -3.93487710844168      0.90599877767234
  H   7.45374796770827     -2.65945549687147      3.07571510849628
  H   6.40939102219360     -1.30240113710826      2.41011624311633
  H   9.20365819735550     -0.52770055128027      0.25186513143411
