24
Coordinates from ORCA-job 9517optt
  Br  1.06918709382391      0.53740315142662      0.52319080641979
  C   2.94538011785291      0.61638076823391      0.76659276964143
  C   3.75322097659660      1.39344372879462     -0.05756101626777
  C   3.42313296462077      2.60498392901387     -0.88799382087131
  O   4.58568744660614      3.45320991309502     -0.79048447881495
  C   5.69687790150443      2.66255276605057     -0.39430490674164
  C   6.49205609060034      3.07345176472024      0.84237677409728
  N   7.23457793406698      4.05991104059532      1.15400419331798
  C   7.80599918583478      3.69321131642009      2.45570828860138
  C   7.31968601927822      2.27492309141794      2.77617673317264
  N   7.57691343603424      1.47963299756114      3.73902862243542
  N   6.47521090238824      2.00260946024964      1.73874884201871
  C   5.73417267046726      0.86168075576620      1.25443803465334
  N   4.88147166517667      0.15081893566714      2.10362575156359
  C   3.51034518380902     -0.07938901406209      1.89091145429043
  O   2.90628350295509     -0.80090933523471      2.67973798440909
  C   5.11490626026911      1.37095355480580      0.08482222893444
  H   2.56458036273393      3.14185898711136     -0.48321411054221
  H   3.22985478177946      2.37697889531323     -1.94245072119202
  H   6.40190489848366      2.59405432000673     -1.23376545625516
  H   7.47436061003508      4.39091021655236      3.22867140353699
  H   8.89707450992517      3.73192410813664      2.41860400299690
  H   8.23393973926807      1.91342438903012      4.38226685435704
  H   5.25417574588978     -0.31801974067180      2.91486976623862
