26
Coordinates from ORCA-job 9519optt
  Br  1.06777972103745      0.04314056515670     -1.03215395376056
  C   2.94876644994768     -0.05043190497246     -0.50844834294256
  C   3.57125994871983     -1.33150048120002     -0.56772813279010
  C   4.82547661951032     -1.33090660275750      0.12978588707575
  O   5.24358365102117     -2.62029679310026      0.40049943456383
  C   4.14009528426635     -3.45586925003071      0.16738976033300
  C   2.87501081744838     -3.23953975094641      0.95221862429433
  N   2.06090662640990     -4.39512190616674      1.26463551818121
  C   0.92224161803815     -4.56814843879449      0.41348944632176
  S   1.42734274358581     -4.81079400780620     -1.29849130880289
  O   2.43929962876073     -5.84850112102348     -1.29649718978326
  O   0.25394454465797     -4.97770078354100     -2.12468819178274
  C   2.20212999828733     -3.24764077903275     -1.64344418485339
  C   3.02321831178226     -2.70717907319709     -0.48683300617119
  C   5.45968731513687     -0.20103175111483      0.53080530829255
  C   4.80063506972149      1.03953281933626      0.25033946198686
  N   3.50518822368807      1.05628955941744     -0.18239134103481
  H   4.40519040665400     -4.46647938883949     -0.11630111449568
  H   2.89838279839625     -2.46911852367319      1.71506856376406
  H   2.61213106621882     -5.24535115635142      1.27268894452774
  H   0.27511646576498     -3.68928029833654      0.42528853813167
  H   0.34633426422632     -5.45766694261753      0.67216732646806
  H   1.38780858355528     -2.56394251343122     -1.88117198368356
  H   2.81964584166813     -3.39594768992175     -2.53156208140724
  H   6.39897747002565     -0.24021326228293      1.06599974003328
  H   5.22684653147077      1.98869947522766      0.54033427753388
