24
Coordinates from ORCA-job 9521optt
  Br  1.42210050324531     -0.44617009401074     -1.76804807511293
  C   2.91729364876389     -0.14805821655088      0.05302130686276
  C   3.49272478162087     -1.31070618473018      0.50510432479935
  C   4.90060875934147     -1.32146463453391      0.62102124279570
  O   5.56956456541724     -2.44972136921062      1.00266798426122
  C   4.78938663263597     -3.63131265054832      1.15496597393220
  C   3.49655025365950     -3.33566516302383      1.88816849409261
  C   2.71574480196424     -2.58399444422737      0.78026199573054
  C   2.87689354999370     -3.54006998517993     -0.42574376678457
  C   4.27178138276312     -4.11026804684718     -0.22333035255471
  O   4.86743750354640     -4.84853175299021     -0.95596495666695
  C   1.32889985255786     -2.36497636633682      1.16984781361666
  C   0.19480623426132     -2.25047838285878      1.53742421351682
  C   5.66213233276858     -0.21501737174825      0.35666403818746
  C   5.04172139208001      1.00027768159704     -0.04212252612743
  O   5.55941134392458      2.06356325016799     -0.28262339376726
  O   3.63872590303021      0.93893567862646     -0.16196583527263
  H   5.44804544614777     -4.36889156581960      1.60646725177311
  H   3.63760350406506     -2.72669052499537      2.77977391708141
  H   2.98081033632943     -4.26193790951973      2.14927331533218
  H   2.76489163566620     -3.02856620607427     -1.38109487990640
  H   2.15849825915011     -4.36465833382385     -0.38415214435679
  H   -0.81888737674875     -2.10310148806753      1.81938650414972
  H   6.73725475381581     -0.24249591929406      0.43299755441794
