18
Coordinates from ORCA-job 9525optt
  Br  0.93200667919938     -0.03986698900233      0.04422791108583
  C   2.80072989636067      0.06049548138065      0.04370017730750
  C   3.49622543984131      1.19862244225911      0.04422464655571
  C   3.10270384008884      2.65806519939739      0.04527676908089
  O   1.96131465523232      3.09223189844996      0.04587091238796
  C   4.37715577867300      3.33403492477675      0.04542429332197
  C   5.46190368277510      2.44797634408685      0.04459647558602
  C   4.95996537924918      1.11113361537841      0.04383685183612
  N   5.64284395039866      0.01480520606710      0.04303852045559
  O   4.88461811442061     -1.15241406078236      0.04246826445502
  C   3.52785385526821     -1.22390665480765      0.04265330432106
  O   3.01745414275101     -2.31052580499649      0.04207939883346
  C   6.79440115982256      2.96807238805474      0.04470816520956
  N   7.90957746125506      2.36411886013336      0.04404346885779
  O   6.84433134857415      4.34598851221237      0.04571797482005
  N   5.67538038728112      5.19492132476328      0.04648054701055
  N   4.55320961997224      4.69285912508505      0.04631590500919
  H   7.73632460883652      1.36038818754379      0.04333641386572
