23
Coordinates from ORCA-job 9527optt
  Br  1.15514112366183      0.47353387570798     -0.08164217346836
  C   3.06581680785207      0.24762625677374      0.04558312405416
  C   3.67324660744024     -0.96637328387048     -0.26800184618772
  C   2.82819900185113     -2.21296479633777     -0.41381059324741
  O   2.53346209279038     -2.93534495507016      0.80329460086031
  C   3.66421731774564     -3.65718218913464      1.12122412838547
  C   4.23032356648515     -3.91732134123048      2.47218178906052
  C   4.86036238822221     -2.88302830252314      1.58736261942512
  C   5.97031234305031     -3.03084632209905      0.62265958499350
  O   6.81911134489434     -3.90343678951876      0.64598944777960
  N   5.85710548901558     -2.14537489789485     -0.42662597785837
  C   5.06713300476843     -0.95540158077267     -0.48931956949848
  N   5.83636711360199      0.10038982666130     -0.81278148213138
  C   5.49474106327573      1.36708742221301     -0.67629022904438
  O   6.08317307238074      2.36407834821610     -1.03980951964448
  S   3.92667245187248      1.72050861421577      0.29869759941727
  H   3.32311710830973     -2.90037017361051     -1.10712673578704
  H   1.85919238197203     -1.94497026331120     -0.82344847362405
  H   3.89904161930842     -4.43241795027625      0.39277103070803
  H   4.71910239386060     -4.87292421714049      2.60750966832674
  H   3.72435407356861     -3.51730365245404      3.33949558253304
  H   4.60782919891607     -1.86524690501540      1.84623449138936
  H   6.69497843515623     -2.07871672352797     -0.99014706644147
