26
Coordinates from ORCA-job 9530optt
  Br  1.00557500311395     -0.27413935587791      0.20792375084805
  C   2.90277340247060     -0.12831003757727     -0.00332279297065
  C   3.59651241593637     -1.17325008142079     -0.56131287651221
  C   2.94997703413829     -2.42157482240223     -1.08471149329781
  O   3.11212296942283     -3.55945339962942     -0.21921619367204
  C   4.37512339000833     -4.01340047387839     -0.12566179978911
  C   5.58844223263994     -3.52027166927665     -0.54029440717753
  C   5.84793909269325     -2.19508471696788     -1.21174356812371
  C   5.01561629152688     -1.07062695723257     -0.65746149995547
  C   5.59099433364905      0.09739274740135     -0.16258326348660
  N   4.94217678550565      1.11257408191313      0.35383990101014
  C   3.56264714921019      1.06098919786255      0.44809324628453
  C   2.95861219558901      2.23111726271757      1.00257993657955
  O   1.75886578646703      2.48592577865217      1.19852173771604
  C   6.55271858076516     -4.49395766100763     -0.13716348938899
  C   5.90601766055748     -5.51666263577206      0.49856454709063
  N   4.56387832747454     -5.21119528611304      0.49556702173279
  H   3.38154593573115     -2.68373508110632     -2.05620037228223
  H   1.87809855175213     -2.30325501890831     -1.18857648924056
  H   5.71326432118585     -2.29601381790868     -2.29798558862821
  H   6.90145836937698     -1.94185541620914     -1.06890881790755
  H   6.67711000178710      0.19522144432228     -0.19864269057925
  H   3.73246935063563      2.97617840979487      1.26727248310230
  H   7.61798611275961     -4.42085511264873     -0.29064109641517
  H   6.27295118033689     -6.41818471569779      0.95680110032365
  H   3.81812352526604     -5.74857266302911      0.89926271473941
