28
Coordinates from ORCA-job 9533optt
  Br  1.12066069378866     -0.06225519412579     -1.18435390002078
  C   3.05408974191779     -0.29883702715005     -1.15405745481584
  C   3.79144554627435      0.77399622495809     -0.78308184633316
  C   5.25273656107935      0.61056440891664     -0.66631542805671
  O   6.10437270429908      1.76601524471896     -0.74669646038153
  C   6.04925494785776      2.79976268901138      0.24517531060846
  C   5.33909504105234      4.19498143971797     -0.06877587536427
  C   3.76435764524690      4.53655617009344      0.07472712213255
  C   2.64875459285680      3.43416211460494     -0.21799327781539
  C   3.59225997453095      2.21859774764296     -0.38750820651446
  C   4.12860464404734      2.13638249326102      1.14908517781250
  O   5.50345209988781      2.29169653814548      1.40716289031672
  C   4.17636147493377      2.73694596779069     -1.67641674697379
  N   4.31629045309973      3.15232371048378     -2.74049236247424
  C   5.74573477652383     -0.63778708234484     -1.08659191465293
  C   4.86576582020136     -1.63146877960227     -1.43868992725584
  N   3.49097138531626     -1.50823039337011     -1.46939732838177
  H   7.09533455942617      3.04519460267314      0.43652804477432
  H   5.67564874901059      4.51471597538669     -1.05231087331074
  H   5.81946950270982      4.85587950506542      0.65867966856424
  H   3.59980683463171      5.37763212875644     -0.59956925185833
  H   3.61206938639440      4.91440156148562      1.08596224025840
  H   2.08024776432867      3.66265328826960     -1.11550435638336
  H   1.96090265798874      3.33636903937924      0.62073878402352
  H   3.82778269996736      1.14269951753207      1.47169815073248
  H   3.59554900065432      2.87941299029027      1.74101202416652
  H   6.81287016231439     -0.82272058160247     -1.11503243319670
  H   5.24211057965963     -2.61264429998836     -1.70498176959987
