33
Coordinates from ORCA-job 9534opt
  Br  1.57692812338315     -1.52341593582199      0.65649932000800
  C   2.80277901068712     -0.07643739708884      0.36086224998665
  C   2.73972448194526      1.04873577277781      1.20515099435037
  C   1.49848109959786      1.39184563289304      1.97300891237251
  O   0.44493559920877      1.91570686357517      1.14453151949195
  C   0.56591616312221      3.15773348401583      0.48327663515320
  C   0.87369447028272      4.38935871640257      1.35062203965591
  C   1.28097644269052      5.43444530538985      0.30992680748417
  C   2.23626770505540      4.66281578165875     -0.62556818430350
  C   1.52463046958652      3.28774977181394     -0.74686656106286
  C   3.67998117110582      4.77586095421372     -0.07226260293726
  C   4.72452832450578      3.74638710949683     -0.52698218126340
  C   4.45563749977629      2.35388268962953     -0.01121602856738
  S   4.89097760993876      1.02671255504337     -1.06423467593628
  C   3.73627821261324     -0.31651352941618     -0.67224303025407
  N   3.83568787974677     -1.39087608369053     -1.38378157357981
  C   3.60493478638545      2.13917300309460      1.03881633091538
  H   1.74016578259839      2.11411016210766      2.75964098025048
  H   1.03641134587168      0.52217939886256      2.43555550010468
  H   -0.44811950582005      3.30141162589148      0.09937734421230
  H   1.70720655680492      4.19266605020322      2.02623541414186
  H   0.01632731261549      4.68449728102159      1.95736079196900
  H   1.74466477834206      6.32324532302309      0.74370733126282
  H   0.39358290262607      5.75830269495551     -0.24358721288750
  H   2.25402674919471      5.12725272760533     -1.61499540598732
  H   2.18657813316448      2.43710732413636     -0.86179583482966
  H   0.90550842488995      3.31813159303234     -1.64624249989992
  H   3.65546565623462      4.79958025530231      1.01901632461370
  H   4.03560420168405      5.76975386737433     -0.36662615479486
  H   5.71818031426891      4.12050208202009     -0.24516957597317
  H   4.72727120453297      3.70354193291106     -1.62323858095924
  H   4.57494655181699     -1.29959891314310     -2.07618615913927
  H   3.38682054154309      2.99015190070856      1.66940776640254
