30
Coordinates from ORCA-job 9538optt
  Br  1.16686726744387     -0.16291624451197      1.71491564626037
  C   2.80186252564383      0.19631474135462      0.77889367260809
  C   3.18232806473052      1.51556405431565      0.44647718417301
  C   4.49454416303634      1.59407260838617     -0.05228412532882
  O   4.84324272425412      2.87133281024514     -0.34474127198174
  C   3.77656490016165      3.74799596503579      0.06889461808128
  C   4.25596637220871      4.55732806892391      1.26615615911158
  C   3.47641490103543      5.85331403171730      1.48852043060395
  C   2.09471069333557      5.68868440561102      2.11281951499685
  C   1.15243274511607      4.75982827174923      1.34944025913070
  C   1.56555112768528      3.28664271017481      1.40041647732381
  C   2.52389721034507      2.85868807768604      0.29310544610104
  C   1.79696084396430      2.67830850319765     -1.02875880568445
  O   0.62798935673320      2.32953193705811     -1.14000180827906
  N   5.32951597554782      0.62042418964566     -0.24799754475440
  C   4.80358329127535     -0.60812478760581      0.07810607190248
  N   3.60719987411966     -0.83314475976300      0.59060609993381
  H   3.60134756106137      4.43062559970639     -0.76989662076356
  H   5.30145880185950      4.80236283135610      1.06501780467142
  H   4.24573865049836      3.93236481218087      2.16486651979620
  H   3.37411817420511      6.36638095331168      0.52505382025485
  H   4.07022640246298      6.51527904427618      2.12492005965660
  H   1.63657615229188      6.67799052027979      2.20903364502362
  H   2.21013257086721      5.29980484774234      3.13099968015240
  H   1.06994393324886      5.07989283912556      0.30429592460884
  H   0.15172600751175      4.85993443819509      1.77639974108781
  H   0.68219469111237      2.66061163538820      1.28893822376382
  H   1.99908948082137      3.05062219404708      2.37678856065335
  H   2.46693238858736      2.71786062676768     -1.91065950706051
  H   5.44688314883483     -1.46357492559757     -0.08132587604342
