31
Coordinates from ORCA-job 9539optt
  Br  0.98350837294317      0.76700229947964     -0.93617484707140
  C   3.00651355263316      0.14045643010875      0.26160216302467
  C   3.40542526182673     -1.17648082609930      0.40066172380745
  C   2.41818358805522     -2.25960778330172      0.66628470047622
  O   1.29638951618283     -2.13774382219652      1.09581155366172
  C   3.09532896808799     -3.56441540600893      0.27790795379971
  C   2.58548137820482     -4.97427092770749      0.08847659574234
  C   3.58561091841213     -5.57754799200192     -0.93307721593309
  C   5.09908331580186     -5.23685332605407     -0.80024591550914
  C   5.57577395327514     -3.76252912310580     -0.92258142970968
  C   5.31308879968934     -2.90599854927453      0.35832644099359
  N   4.31332135321065     -3.63868704457424      1.10884945902150
  C   4.79857888592975     -1.47766369889860      0.12836427508265
  C   5.67021381532384     -0.49952539139516     -0.23017849271351
  C   5.25555468840200      0.87732778771615     -0.36146459436997
  N   5.96099576849053      1.90756375996806     -0.67951775665776
  N   3.90544805289647      1.07583825197635     -0.07743246750099
  H   3.40136372478977     -3.29239126497378     -0.73216827522956
  H   1.57484240799897     -5.00386180100720     -0.32241025574732
  H   2.59097046424923     -5.51847448095616      1.03344138165296
  H   3.50108716995029     -6.66778714359744     -0.94321726195853
  H   3.26750150033475     -5.23832045265769     -1.92520456584408
  H   5.59183583908867     -5.78528827580087     -1.60943529511368
  H   5.48193483553633     -5.64660726290016      0.13545308980332
  H   5.12303344001833     -3.29055593160780     -1.79779293964133
  H   6.65029716939439     -3.77300359955407     -1.11769454594322
  H   6.23633999804473     -2.84834743292828      0.94100439576101
  H   4.13699440234480     -3.17277287945083      1.99368011725685
  H   6.71887637438209     -0.72253766143979     -0.39234994829626
  H   6.91666666552693      1.61818616966672     -0.86576684916791
  H   3.56675581897491      2.01589737857677     -0.24215119367657
