30
Coordinates from ORCA-job 9542optt
  Br  0.95522394672376      0.26878636337195      0.55754315241713
  C   2.89436614653110      0.05040784261474      0.37503516679158
  C   3.64701517704245      1.18508324306693      0.26574935934908
  C   3.08127472044839      2.57899113885233      0.25278588368099
  O   4.05284417921259      3.59055544028211      0.52580386759036
  C   5.25205894163241      3.46258865833405     -0.18265528169565
  C   5.02159090255720      3.57416843031246     -1.68606733284093
  C   6.34130639296693      3.73452334635532     -2.42494806488963
  C   7.10061451041512      4.92600182148809     -1.85103329241617
  C   7.13518005281383      4.94823685490962     -0.33599358957805
  N   8.09303574095378      5.37825183229224      0.37096164882966
  O   5.99857821075102      4.59857560709055      0.29174199862812
  C   5.95534282548160      2.18331152662661      0.25261890269756
  C   5.05719345772646      1.01071328216689      0.02317934809609
  C   5.51313567363023     -0.33314958253968     -0.00779683300992
  C   4.63495740783211     -1.37106713096606      0.11978238016191
  N   3.27634576053941     -1.22247882385820      0.30950338157031
  H   2.31806231582012      2.70603912051455      1.01708762054047
  H   2.60771329125429      2.79443874287782     -0.71674667962478
  H   4.37796757579656      4.44286848514711     -1.85375161127311
  H   4.50049136619750      2.67950709452215     -2.02486609392290
  H   6.16927789847196      3.88417344123110     -3.49216227825639
  H   6.93158410301579      2.82169837441719     -2.32391365896107
  H   6.58595135805675      5.84559912440071     -2.15007375639990
  H   8.12143825306563      4.98167428360603     -2.22900231632026
  H   8.85262230404464      5.67560614092619     -0.23580598808635
  H   6.19786355494368      2.34137861994203      1.31676333242567
  H   6.90973575744363      2.06871667994289     -0.27132299140190
  H   6.56914969883568     -0.54521658152478     -0.14757092058649
  H   4.98307847579528     -2.39698337640301      0.06115464648458
