25
Coordinates from ORCA-job 9546optt
  Br  1.06783123990344      1.37392973880644     -0.43911098247175
  C   2.68319476524029      0.61615657197113     -1.18067273025514
  C   3.00035759084863     -0.73751168472350     -0.93878137035365
  C   2.24547223249355     -1.93215556624556     -0.76787382935432
  O   1.04041457285931     -2.15084524587028     -0.76126099123538
  C   3.27780649622449     -3.05456728661196     -0.55679581797648
  C   3.24763336634608     -3.68723302155610      0.84772524747071
  C   4.43990604597678     -3.03155731720404      1.57199581276762
  C   5.44428264463379     -2.84035956327663      0.41520078058291
  N   4.59377928764099     -2.40850912889498     -0.68379672493503
  C   4.37329083900693     -1.03216587197795     -0.79083167482188
  N   5.35353040057570     -0.17566170437879     -0.71925337087175
  C   5.01851950911190      1.15040217411835     -0.86261563681118
  N   5.82760268560883      2.12762574047400     -0.78559567364451
  O   3.71142938945648      1.51417845289302     -1.15198019571163
  C   4.95407495683993     -3.80360195229804      2.69256569345985
  C   5.39417224574412     -4.45775197576608      3.59681834345404
  H   3.13085671499673     -3.81140638530141     -1.32964485171781
  H   3.41353330098415     -4.76432313620106      0.79523998689299
  H   2.29327294988426     -3.51080459388425      1.34184228696957
  H   4.14650999199403     -2.03822530534810      1.92399424922142
  H   5.92046331876766     -3.79502344826569      0.17941313356019
  H   6.20649302618435     -2.09058548631852      0.61221443800770
  H   6.74543105586046      1.73428842423837     -0.59692425476633
  H   5.77914137281700     -5.03029242837832      4.40512813253983
