29
Coordinates from ORCA-job 9549optt
  Br  1.33394096833629     -1.73426237025158      0.41772077796289
  C   2.49646661745017     -0.23819762182095      0.34917692598936
  C   2.16990503205800      0.99107064946151      0.86018816761347
  C   0.76867404737042      1.40313182107982      1.30707483082994
  O   0.04547953012625      2.13956224601966      0.28376493697781
  C   0.87838838775190      3.08198168740834     -0.37681517471396
  C   1.26427426953526      4.29820239237386      0.46388740987546
  C   2.66728339664502      4.78467290052628     -0.01232279933890
  C   3.01396249865929      4.03467691779043     -1.27212322870340
  N   1.94904766377866      4.08770305411112     -2.26076138538711
  C   0.61323950591580      3.50974767936406     -1.80825156159704
  N   3.80725576697064      2.89034381289996     -1.28649532202083
  C   3.78946637628603      1.99744161412383     -0.33988320446483
  N   4.45151196645543      0.78332138843557     -0.57852441442729
  C   3.78589715484994     -0.42917881001893     -0.29897117173016
  N   4.24909118212312     -1.57595910331199     -0.64020516228377
  N   3.01868263899458      2.04494233075558      0.78245520171725
  H   0.13818134574498      0.54899981650074      1.53649487987511
  H   0.87533084547283      2.03181421743936      2.19557677905806
  H   1.76786409509477      2.53702051692789     -0.57156183713022
  H   1.30767034994236      4.02591215310901      1.51605845952559
  H   0.50909100644662      5.08276595217798      0.34644621612590
  H   3.41786671910468      4.61443978913726      0.75743407626101
  H   2.63334691544574      5.85905511794216     -0.22695079448889
  H   1.79791480691848      5.05991638298418     -2.49823529658566
  H   0.35790154691525      2.64483776636576     -2.42374532185884
  H   -0.16813593397315      4.26778352472978     -1.92541704699414
  H   4.97253405601470      0.77792566344331     -1.44543915181254
  H   5.14786724356591     -1.46367148970403     -1.10557578827425
