26
Coordinates from ORCA-job 9551optt
  Br  1.43990793904827      0.22974740469943     -0.73201583770010
  C   3.29350391416463      0.12092997222831     -0.13298147423878
  C   3.92519451487154      1.32813217794398      0.18874319604579
  C   3.84606947965898      2.75150712401269     -0.30970124169496
  O   5.22863761242236      3.19267272446590     -0.43937971020566
  C   6.06732992403619      2.34886591764885      0.35485911473342
  C   7.35833020255200      1.78572739318137     -0.29807275071317
  C   7.29904323711316      1.91413383234310     -1.82357873379418
  C   6.14895617564619      1.26522804538634     -2.45972765353835
  N   5.27462536501605      0.78535751755302     -3.02565869386621
  C   7.40882467014933      0.28851837302340      0.16817024670213
  C   5.95011893399416     -0.04319361490965      0.39059341084565
  C   5.26551296453369      1.11607884965664      0.50146142649790
  C   5.17311623383875     -1.21811564798402      0.15154484722293
  C   5.73739915651151     -2.51407407125531      0.05851282356559
  O   6.94141246339722     -2.78104803363229      0.25146340233215
  N   3.81301270678983     -1.05629362214895     -0.08604902732799
  H   3.33530802634182      3.43983103790852      0.37323033185717
  H   3.38097171951873      2.82128819034893     -1.29472039733629
  H   6.30361341290027      2.85840006187882      1.29840265749446
  H   8.24719981828490      2.33392232687381      0.02308575360030
  H   8.20235238058180      1.48367364801795     -2.26011947205601
  H   7.25358686116951      2.96847438385103     -2.10131906385006
  H   8.01579193363708      0.17887291553967      1.07118587121166
  H   7.85273234406154     -0.36780460878557     -0.58291716111992
  H   5.01844800976034     -3.30783229784596     -0.20901186466744
