29
Coordinates from ORCA-job 9555optt
  Br  2.08097038409161     -1.06366339099419     -2.06778105673883
  C   2.56309156816790      0.12421157424385     -0.64998678703482
  C   2.67505176223890      1.48554815455107     -0.93871600197818
  C   1.93250015378910      2.33323064699617     -1.86850469170961
  O   0.53879901767038      2.73899238992674     -1.54396841039320
  C   0.28582171975878      3.57160750920420     -0.48792122470601
  C   0.54566389175755      3.05510672646693      0.95182224669540
  C   1.27521747970013      4.20670428084792      1.67103389536694
  C   0.97484702290562      5.36736382277970      0.71217366333932
  O   1.02538709836451      4.79645933882174     -0.57326484387172
  C   2.80630090353465      4.09113431331002      1.83390200596451
  N   3.33965124665456      2.79783638362845      2.22792680275403
  C   3.25298248574232      1.76808798081093      1.30402603876263
  O   3.35699610277972      2.24277209470737      0.05457094086126
  N   3.08021958175485      0.55835299812979      1.64245518703627
  C   2.96625459120903     -0.41904475694909      0.59363231993425
  N   3.16468302588519     -1.67684053187093      0.85295941515637
  H   1.77670988616980      1.80360280225001     -2.80589189364080
  H   2.48208045970091      3.25898810138393     -2.04769454808317
  H   -0.77828424759170      3.82777103756255     -0.58692192909812
  H   1.06907246535363      2.10502127015766      0.93933701547947
  H   -0.41413536624768      2.86946912669093      1.43538605512179
  H   0.83056461034854      4.38149923903362      2.65346620275129
  H   1.70812460187652      6.17425639926517      0.76135805967954
  H   -0.02350676322625      5.78701920858918      0.90517639213837
  H   3.27793508274387      4.36058650199946      0.89116429184983
  H   3.12638640863873      4.82496547204403      2.57772249170464
  H   3.09092139107342      2.46975585443196      3.14951414284460
  H   3.38369343515538     -1.74979454801922      1.84402421981394
