24
Coordinates from ORCA-job 9561optt
  Br  1.29262683024809     -0.20805723507901     -0.12804454053137
  C   3.16808816025479     -0.23272576991140      0.10606531808707
  C   3.92388865394217     -1.32067732011679     -0.25101981197515
  C   3.65228800089063     -2.55690515317943     -1.06127174931120
  O   4.94917692272188     -3.04556061296170     -1.45797101993517
  C   5.96423136191144     -2.40951269598080     -0.71382232759629
  C   6.65011059238913     -3.44787173255120      0.19340923118069
  C   5.71931988189035     -4.08662571378897      1.11517133557995
  C   4.93520917879601     -4.60160991978985      1.86196534808094
  O   6.98876678554897     -1.89439463078415     -1.56523630305687
  C   7.70464516466857     -0.83771590627846     -1.00714269605999
  N   7.18241665214042      0.11538269625563     -0.24445000084654
  C   5.94049919886978     -0.08767498763144      0.15122214864867
  O   5.20986149825999      0.94909778164755      0.67716586442652
  C   3.81085411212242      0.91383261542849      0.70588819355818
  N   3.20060158679929      1.90272154102225      1.23114438940214
  C   5.28223329475915     -1.28772232470463     -0.04973070088546
  H   3.07133663498963     -2.32519472813655     -1.95602267751461
  H   3.13859312097321     -3.33699827776183     -0.49236435227965
  H   7.44158866352126     -2.93730774867340      0.74821652820553
  H   7.11405927300730     -4.19678824121284     -0.45273290492034
  H   4.23136154391860     -5.03753128836828      2.52820859519025
  H   8.68158391904470     -0.72861958450690     -1.44856809818045
  H   3.88465896833210      2.59545923706376      1.52492023073315
