24
Coordinates from ORCA-job 9564optt
  Br  1.26598720864995      0.19579386733440      1.55552555565106
  C   2.93155703234361     -0.07030610025751      0.67808539631323
  C   3.28453494836072     -1.30571601222212      0.05067470194702
  C   2.54550347769641     -2.52687523951026      0.11077613632911
  O   1.52151317814157     -2.75443560290549      0.76918988724612
  C   3.17674966718606     -3.69286276209303     -0.69508974157915
  C   4.37355871843602     -4.28211445101103      0.09630260684965
  C   5.57326739270306     -3.42813231326470     -0.40561147754700
  N   5.01726293189889     -2.42318229811134     -1.33040487162606
  C   3.88912926980197     -3.11761193255664     -1.93315281366797
  C   4.55729121955568     -1.26336699690379     -0.63160359029910
  C   5.31786113283976     -0.12485764358697     -0.55589646440790
  Br  7.04587968818524     -0.11368101206681     -1.40290076151798
  N   4.99995648532760      0.99769270769156      0.07636673714595
  C   3.78904051652429      0.99833255308194      0.66496247378706
  C   2.17656681435009     -4.69490555185671     -1.04053377341135
  N   1.44327332269556     -5.50524247048487     -1.39040435817054
  H   4.51328260704063     -5.33816712882618     -0.14101868742381
  H   4.20041584199221     -4.19110104897355      1.16719534803728
  H   6.27878827010855     -4.05139691701384     -0.95837792711792
  H   6.11283839341608     -2.92673790952592      0.39510710358752
  H   4.25323665847635     -3.91671928100964     -2.58378448364327
  H   3.26261827902121     -2.43570144976027     -2.50450498644431
  H   3.49688694524841      1.91929499383281      1.15609798996234
