27
Coordinates from ORCA-job 9565optt
  Br  1.12986972242334      0.89613446881426     -2.01187318611586
  C   2.89350048445163      0.54993664955780     -0.39886913239630
  C   3.44364912518498     -0.71571107976248     -0.44177890357645
  C   2.47856999906502     -1.85578747424408     -0.64806715226815
  O   2.62404717496860     -3.00831816424677      0.18497082592455
  C   3.86984582751907     -3.65148162135157      0.20962741354921
  C   4.82838343992816     -3.30700210497463     -0.93225032605806
  C   5.61064015396840     -2.10960813423264     -0.38466523688963
  N   5.86713697921389     -2.47596483905421      1.01889174871806
  C   4.70723586843417     -3.21907699763036      1.47354577731455
  C   5.08005568988089     -4.43749002505533      2.26174954766801
  O   6.19108550078037     -4.89362425873353      2.33428001064444
  C   4.85873313551594     -0.78903507732475     -0.44763122028684
  C   5.61886347618915      0.35077789210634     -0.45180918505099
  C   5.03165246721142      1.65011308030885     -0.41124060652005
  O   5.57869249295754      2.72611391874171     -0.40188662580970
  O   3.63159239689745      1.64308376107929     -0.34742614644792
  H   2.47832211076014     -2.17183286887387     -1.69697373957045
  H   1.47993714030452     -1.48412653872994     -0.44073620908943
  H   3.65244865713480     -4.72303511985506      0.23411543500187
  H   4.31792272713137     -3.13026235560730     -1.87664820668498
  H   5.52171380467124     -4.14013054667842     -1.06763486039487
  H   6.56743391145994     -1.97575082304329     -0.88956621494639
  H   6.67897642844426     -3.08348131135756      1.07544105404466
  H   4.03727293937011     -2.60429654766558      2.08301660087395
  H   4.23336045074649     -4.94308211999129      2.76446833968080
  H   6.69905789538694      0.31093823780446     -0.44704980131401
