29
Coordinates from ORCA-job 9566optt
  Br  1.01103536177214     -0.09126131913941      1.51108260985097
  C   2.73699454957207     -0.21377880979222      0.63491275275385
  C   3.48131758988852     -1.40814810142711      0.76872445161561
  C   2.92257617676250     -2.72402970421636      1.12704673641288
  O   2.81914584133890     -3.62960831627146     -0.02126144940382
  C   3.97264136254112     -4.37557458337425     -0.21097918441117
  C   3.91609391692251     -5.28930861673384     -1.42084385812209
  C   5.40951435346875     -5.51951040151439     -1.68630578012982
  N   6.09717583164281     -4.30753080754826     -1.23074335430667
  C   5.30396308242153     -3.65955511757034     -0.47550463217112
  N   5.66471846454612     -2.49898720890164      0.20565394816745
  C   6.95582630048254     -2.40373440358503      0.70565582201879
  N   7.50327793237105     -1.42020261894553      1.29117491848659
  C   4.78642481484422     -1.35626085996941      0.12944379664998
  C   5.20703684162731     -0.25169924225572     -0.57862270260973
  C   4.43159184115796      0.90394656318439     -0.66622646247175
  C   3.16294512629543      0.91528479378388     -0.00225598347360
  H   1.91348293419698     -2.62812271927045      1.51856454621132
  H   3.53787705088076     -3.25207169292463      1.86939575442686
  H   4.17437124057790     -4.97762496938081      0.69641265959377
  H   3.45709335510174     -4.73587655779161     -2.24232042622021
  H   3.35122785541664     -6.20365774716609     -1.24674810665978
  H   5.64693372118224     -5.70688864194209     -2.73412477319809
  H   5.77985423190946     -6.37669372932044     -1.11199781897669
  H   7.51165149402258     -3.32825848557275      0.56784634199560
  H   6.85978409583147     -0.62704196447214      1.31893364685452
  H   6.17825619135332     -0.29267600035133     -1.06156869739568
  H   4.76605503391155      1.76022146476991     -1.23398603809429
  H   2.55413340795974      1.80864979769918      0.01664128260630
