25
Coordinates from ORCA-job 9567optt
  Br  1.07418787855694      0.17236235484558      0.28749135752266
  C   2.98102298403516     -0.08469451422380      0.00916634848134
  C   3.52406179070696     -1.35711953068239     -0.16100015362713
  C   2.55271204550963     -2.42429020161489     -0.74920988402193
  O   2.32257071377602     -3.69682421710024     -0.09786290714137
  C   3.61701850040836     -4.08368751984515      0.23121004755923
  C   4.15249419301798     -3.52435478964913      1.55691800364385
  C   5.54199090034455     -3.50154744790258      1.01141701996629
  N   5.66571537477181     -4.90589876310056      0.58789560229573
  C   4.43487105406479     -5.37303970908368      0.11236782271160
  O   4.20809650046412     -6.45616810182885     -0.36793044912284
  N   5.83949956941981     -2.50497679362119      0.14243763537782
  C   5.02542023422529     -1.44702831545966     -0.08197644674439
  C   5.67463390110122     -0.19237089932779     -0.30616104887453
  Br  7.56793403684002     -0.18666446004370     -0.55228113494269
  C   5.05538175266972      1.02862963610461     -0.24934605728461
  C   3.68754190032561      1.10535994845803      0.00007245847101
  H   2.94612497568475     -2.65917785539836     -1.74618370244239
  H   1.57300335075108     -1.97977197768856     -0.86596447970373
  H   4.21218078580661     -3.60576777847451     -0.54906935597030
  H   4.01043578045447     -4.22876393183959      2.37582838593990
  H   3.74426284336387     -2.55414985090997      1.81091176546765
  H   6.50544714099660     -5.26968657521366      0.16372115413510
  H   5.64389083664153      1.93067098607516     -0.34870098293091
  H   3.19450095606298      2.05196030752492      0.15624900123464
