22
Coordinates from ORCA-job 9571optt
  Br  1.10127365851480     -0.01848580672905      0.36668038209995
  C   3.00648987799207     -0.12649636893660      0.17625176180811
  C   3.67300092317130     -1.24092800364497     -0.17981981151559
  C   2.94138059191672     -2.46881247754668     -0.62380888724025
  O   3.14125143413127     -3.62859774158276      0.20199561407613
  C   4.35859309377353     -4.15949884568600      0.05046959407138
  C   5.57153077132444     -3.61701898665982     -0.31869612539575
  C   6.43113208209719     -4.74537143187711     -0.31107168208874
  N   5.81807821026455     -5.86153063913650      0.02869533388026
  N   4.53797925868499     -5.48130978685853      0.24020168189348
  C   6.02017519480220     -2.21843403063865     -0.52117864928078
  O   7.22397095807114     -2.04612823340517     -0.78304846903756
  C   5.12027846090084     -1.11149110097719     -0.30735474740285
  C   5.67230591788148      0.17491298193338     -0.20765327985487
  C   4.93708518578293      1.31419731124838      0.14597369079245
  O   5.26359428283007      2.46988162593361      0.29001978765312
  O   3.53294455428610      1.06469510677387      0.42218104384627
  H   3.25937032929072     -2.73223808857218     -1.63736716987653
  H   1.86981065277277     -2.30632298364849     -0.61588209692446
  H   7.48552862696903     -4.73743596660788     -0.53456387902630
  H   3.83637933260942     -6.15062411122485      0.50144325363337
  H   6.73284660193235      0.30303757784320     -0.35746734611083
