23
Coordinates from ORCA-job 9572optt
  Br  1.33345406923420     -0.50908311461147      0.37772924957228
  C   3.17291642210301     -0.09319904215507      0.31739532951837
  C   3.60952350022820      1.18908073139861      0.10412354263410
  C   2.85464475588961      2.45657883095035     -0.12023736452431
  O   3.86410265449152      3.45314942141418     -0.30351337710648
  C   5.10399747652964      2.88381379221559     -0.20361331926618
  C   6.20685414814394      3.64118201943898     -0.36769780581881
  C   7.57905360129756      3.18279551370355     -0.28007837389770
  N   8.59110986612445      3.95896155068274     -0.48453029631248
  N   7.93455945441487      1.88299769505508      0.06006615440374
  C   7.33730749892557      0.61509414740911      0.23871612286064
  N   8.08051728727515     -0.42567339978086      0.43351099917634
  C   5.91583735670675      0.48176160136203      0.22696522765398
  O   5.45692074334242     -0.79996391623823      0.42670300019293
  C   4.12557793646631     -1.15852593339471      0.48884955925520
  O   3.87682574148953     -2.32379879947046      0.67625987568636
  C   4.96444180441409      1.48779744151147      0.05831352971676
  H   2.22346034483600      2.41872128211087     -1.01207113647990
  H   2.23095280314543      2.73109290184700      0.73487864762163
  H   6.07352558184521      4.69118884992785     -0.58789069725267
  H   8.26450932886235      4.89400289405022     -0.70411872863504
  H   8.94255143391825      1.82496682478070      0.07166602326012
  H   9.06535619031585     -0.16994129220758      0.41557383774110
