22
Coordinates from ORCA-job 9575optt
  Br  0.90518784513347      0.02874493182337      0.04568656552728
  C   2.79739900219601     -0.08060271614964     -0.03956116253261
  C   3.45393777417151     -1.33132821712340     -0.03671148834425
  C   3.08568375864326     -2.69525548393005      0.02853158756891
  O   2.01347298651628     -3.30959402910583      0.12152324537198
  C   4.44171871974189     -3.45411921077523      0.03205028663471
  C   4.54286564120121     -4.42060155042702      1.20825766856346
  C   4.16823281645324     -5.75204346356349      0.60787199182537
  N   3.84392187577451     -6.84421890737599      1.13108310588762
  O   4.26839824371801     -5.67643569430177     -0.75612841386071
  C   4.53101546886036     -4.39268176591878     -1.16977348902364
  O   4.77140627119881     -4.13992796124846     -2.30199648353668
  O   5.45947988146975     -2.48084314803598     -0.01902885261191
  C   4.86594025574083     -1.24018985948579     -0.06715349738256
  C   5.53733158550131     -0.05821535988420     -0.11355522739136
  N   4.87525872716213      1.13123534107979     -0.13521114491749
  C   3.54395758096013      1.08406850202115     -0.09508230623478
  H   3.87757858655997     -4.15948968084488      2.02856824711245
  H   5.57521943800005     -4.46440212765141      1.56134445427300
  H   3.81722655180348     -6.73951258930338      2.14200103157399
  H   6.62018712444087     -0.03165967727650     -0.13544666898347
  H   3.02257986475287      2.03607266747753     -0.10626944951934
