24
Coordinates from ORCA-job 9581optt
  Br  0.96793329741582      0.07918881401768      0.53771616551297
  C   2.86571616057486     -0.00725943309101      0.25675619994641
  C   3.51823138291623      1.14939280313592     -0.16086232598661
  C   3.21373622485932      2.61573697330987     -0.03484261456971
  O   4.50379169671916      3.24971026084396      0.11900914899821
  C   5.47883590971638      2.41339804658461     -0.47852949364096
  C   6.83587557338186      2.41751241437512      0.22420477765712
  C   7.60007123202658      1.18348161684888     -0.31510805510172
  O   7.00885954497352     -0.03786284588527      0.05648426919147
  C   5.63838608414024     -0.06986624235902     -0.00932430445173
  C   4.92678764201444      1.03878077900384     -0.33085854275805
  C   4.96156833049111     -1.27107205295515      0.35620080783820
  C   3.51903437144378     -1.19467550071256      0.46578224230171
  C   5.65977493882080     -2.45049533709390      0.63984585146345
  N   6.21856244845631     -3.44126120629891      0.87696781830150
  C   7.61953504835503      3.62350730753013     -0.02774011627346
  N   8.25585234983285      4.55083537838390     -0.25485571374124
  H   2.61517461914129      2.86389654761812      0.84465495850295
  H   2.72132953564125      3.04630454115971     -0.91655864422441
  H   5.62467183841452      2.71527414170769     -1.52683220201404
  H   6.67575912890441      2.31158713338252      1.29948668318900
  H   8.61591719732186      1.16414813760870      0.07431315760151
  H   7.64148244567945      1.26154023231977     -1.40834276468240
  H   2.96711299875886     -2.08480250943462      0.73043269693984
