22
Coordinates from ORCA-job 9592optt
  Br  1.15250755396806     -0.21980199927076      0.15573354360105
  C   3.04756317715660     -0.07139090536466      0.10265840540913
  C   3.69396497301608      1.09895926710026     -0.02554392834424
  C   3.04483709459137      2.42568168550750     -0.23772856741186
  O   3.76747026904211      3.46638055963172      0.39305155908384
  C   5.10299320565428      3.52522498456189      0.10844708220444
  C   5.65196647058189      4.77864733363457      0.19791474580938
  C   7.03628250990273      5.06380845707874     -0.01216206039358
  O   7.55697777023725      6.16784939201672      0.04123777665000
  S   8.06993931152360      3.66344052117530     -0.39991241035289
  N   7.14862710263182      2.29909700913166     -0.40452962831803
  C   5.82432143076442      2.32523679487038     -0.17193165011037
  C   5.13737950401042      1.06498391762810     -0.08406045009143
  C   5.79939248838383     -0.15287066431462     -0.05262981930322
  C   5.10792115393670     -1.38980684205122      0.07535794209842
  O   5.57658930718298     -2.52330061452459      0.13291211835295
  N   3.70206941870217     -1.26316943748542      0.15870534505369
  H   2.03996121226980      2.46239852892815      0.17612779422925
  H   2.99200783214592      2.64245970019665     -1.31335301709829
  H   5.00850142547782      5.61554720900972      0.43540669838668
  H   6.87643218048953     -0.18431258333907     -0.10547968537535
  H   3.19429460833057     -2.12706231412105      0.26277820592043
