25
Coordinates from ORCA-job 9604optt
  Br  0.96431956956423      0.36980963776809     -1.13146182941069
  C   3.13455179854229      0.14616825175118      0.14881605561646
  C   3.86047038407227      1.28541536141902      0.12795339971937
  C   3.59347177229981      2.76493545800055      0.03185238449468
  O   4.92771210516805      3.37856737443008      0.02144497903615
  C   5.86376692579537      2.39345602717095      0.03756205814960
  C   7.23055102347244      2.44693581058643     -0.01025510144211
  N   7.96531452293106      1.30016757260077     -0.00507455849476
  C   7.36742454814927      0.12557761330456      0.03211269628042
  C   5.96763320113099     -0.03329484053110      0.08200212254252
  C   5.25404147987544      1.14227751254939      0.09985528337766
  C   5.18206955635879     -1.27121303383141      0.10206989640532
  N   5.61997542131530     -2.47788328908336      0.09378732298599
  N   3.78540428504429     -1.06326635021165      0.13908970734476
  C   2.95821688925702     -2.26626885037861      0.20810823261580
  C   2.89254180545055     -2.82974969866042      1.55962110050853
  C   2.80366852186896     -3.28538693120247      2.66407981819059
  H   3.05177660609693      3.18159404609312      0.88144293869162
  H   3.08137340454564      3.04508811521943     -0.89051963676012
  H   7.78064955184632      3.37879020783796     -0.05688621411426
  H   8.02217156328564     -0.74124248135785      0.02178062828953
  H   6.63445976712095     -2.47779642451371      0.06559097758060
  H   3.37580605046173     -3.01193620036141     -0.46767474046889
  H   1.96103492700350     -1.97935068446553     -0.12335028469019
  H   2.73659431934301     -3.68539420413402      3.64605276355142
