25
Coordinates from ORCA-job 9609optt
  Br  0.81753381591093     -0.78985658410677      0.90904155093395
  C   2.34758002503194     -0.01281418007372      0.05879547637882
  C   2.16066677161592      0.67722387457473     -1.11088331326274
  C   0.86161404518067      1.22763836837033     -1.58732691065403
  O   0.23810014140282      2.33370618095144     -0.80687740945562
  C   1.04626196900259      2.94811360994461      0.06973979985540
  C   1.03629937554746      3.09766143296776      1.42069200906630
  N   2.24681167322374      3.63164049693836      1.84746764420503
  C   2.95474621761579      3.78538725186747      0.76561531381212
  N   2.24709065219712      3.48844628481370     -0.35391514428846
  N   4.32820295983747      4.03837152872736      0.68194646462585
  C   5.01934138782970      3.17787193219615     -0.30390523097737
  C   4.48986277136937      1.75018488366733     -0.37820055377478
  S   3.67357491233557      1.15790367809798     -1.89385095067922
  N   4.37531150137551      1.07299049052656      0.69048372430347
  C   3.58498237615263     -0.08080863607881      0.79872239228307
  N   3.85577411305192     -1.02657331380264      1.65894229720149
  H   0.09714457501722      0.45246926999754     -1.57173950180287
  H   0.96828764248157      1.61198093651572     -2.60227264180062
  H   0.26883049641826      2.79654434229792      2.11210778215622
  H   2.62810348471956      3.34613225735794     -1.27640902574683
  H   4.70410518060099      3.88699165650981      1.60986881259150
  H   6.07414208902716      3.16456725146370     -0.02825727559616
  H   4.94592167572438      3.64130292746466     -1.28980728629114
  H   4.71771014732965     -0.76707594118917      2.13702197691664
