23
Coordinates from ORCA-job 9618optt
  Br  1.00833244939404      0.20834730014951      0.64136338214192
  C   2.91567225377998      0.10664403074162      0.37632541060968
  C   3.52389535149087     -1.12059151880766      0.24204665420883
  C   2.80893376268659     -2.43643724893749      0.10405577802541
  O   3.51220995566319     -3.51089589305225      0.84118393198239
  C   4.82456587650796     -3.51309165343038      0.55264020157121
  C   5.52104186332212     -2.43224616233001      0.09883709514720
  N   6.68809416992040     -2.98407329622052     -0.46425347940755
  C   6.61955886556398     -4.34637743554282     -0.46781628345831
  O   7.43915661877004     -5.14080159377347     -0.86814174602808
  O   5.43583143517115     -4.69283752060380      0.10625987469138
  C   4.96114762744133     -1.14084725353445      0.04102034695712
  C   5.63870734571685      0.08677411740854     -0.14216198058427
  C   4.96842621457876      1.27931914186962     -0.03683090453339
  C   3.58671238000432      1.31781533719392      0.27087911506698
  C   2.68645781775882     -2.84357406333283     -1.29729154334885
  C   2.57407693634438     -3.16364429101099     -2.44914003134310
  H   1.82241018814347     -2.39423607743644      0.55752227836135
  H   7.46476503808731     -2.49272105120611     -0.86487801763686
  H   6.70311865540417      0.08469537424142     -0.35434917143331
  H   5.50099565958283      2.21184497247475     -0.18093492594932
  H   3.06079563579391      2.25092660686330      0.40180386428342
  H   2.49409389887338     -3.45299182172340     -3.46813984932384
