25
Coordinates from ORCA-job 9620optt
  Br  0.76142045909029      0.12222672803796      1.00747154004408
  C   2.92081583982415     -0.10221424451579     -0.13006047851617
  C   3.66858726689943     -1.25427663836760     -0.13625542837150
  C   3.32315153586028     -2.69756502058561     -0.13521999399807
  O   2.88690149470559     -3.07818379352351      1.16094242731193
  C   2.31345188620360     -4.29775870444687      1.25188787357167
  C   1.34181649384301     -4.63654942237726      2.16276059746830
  N   1.06714810835401     -5.94249811729058      1.93287010074059
  N   1.77660931751528     -6.46663770038976      0.93567746652000
  C   2.55070320054512     -5.47637433425043      0.51051208190058
  O   4.53744825124323     -3.35526371986868     -0.46118217539968
  C   5.64614299634887     -2.50411224373193     -0.18467203291628
  C   5.06018320083630     -1.11880264808139     -0.12084907575004
  N   5.75462442197988     -0.01843071257193     -0.06172313516729
  C   5.02473554787594      1.15457296434722     -0.01069625196113
  N   5.50807572609931      2.33881554406812      0.07318602278591
  N   3.61986906789000      1.03724034181380     -0.07793611742147
  H   2.56809532554418     -3.02072813063746     -0.85544668048366
  H   0.84409232140570     -4.04885153961364      2.91387134279963
  H   0.39915896777133     -6.51735501981111      2.41271928121831
  H   3.25334610198315     -5.62468896343675     -0.29286009353712
  H   6.38052505159095     -2.61078092894040     -0.98332889568577
  H   6.11340669261708     -2.76732887315585      0.76937238810730
  H   6.52019720407239      2.26012187825753      0.10607513496871
  H   3.12049351990062      1.91542329907213     -0.03311589822886
