26
Coordinates from ORCA-job 9623optt
  Br  1.43086930715334     -0.43195168698921      0.93055627516702
  C   3.29854894189661     -0.13936984879345      0.46146658047726
  C   3.76016586976379      1.20713255603993      0.46308777873069
  C   5.10156829845726      1.32095200315915      0.02038584742540
  O   5.44244235694244      2.64276092608195     -0.18983146810988
  C   4.31447867239655      3.44115351778578      0.10061933019065
  C   4.51541185951451      4.21567578479539      1.39182336233708
  N   5.57649733617699      4.28348740604989      2.06273569745846
  O   3.44704432303353      4.95734598929929      1.77233212160049
  C   2.16936740740752      4.55176809408092      1.26882451011986
  C   2.07335825943365      3.04151275838395      1.21389914165229
  C   3.05996520741511      2.50737322715566      0.15750839991712
  C   2.41198908488284      2.49085192390704     -1.16800129030334
  C   1.91453224515094      2.38785421594774     -2.25817506931079
  C   5.91847994495901      0.26091259252017     -0.20357321190618
  C   5.34176713146386     -1.03706376328340      0.00066714558703
  N   4.02802754107917     -1.18751991355128      0.29683005451955
  H   4.20031257489999      4.17869903527081     -0.70006547313137
  H   6.26911186539132      3.68632757584297      1.61361714885150
  H   2.00532050608980      4.98772967304474      0.27654560576171
  H   1.44393077190853      4.98224111048383      1.95749647412476
  H   1.05868068992614      2.72391685718976      0.97861260674328
  H   2.34654252661350      2.62604413794564      2.18632180344416
  H   1.47832455938470      2.26958008398134     -3.21986502447243
  H   6.94750076367036      0.38920652633788     -0.50960086211785
  H   5.91176195498846     -1.94062078268658     -0.16121748475647
