29
Coordinates from ORCA-job 9629optt
  Br  1.14885847357254     -0.15963531702166     -0.94118248849523
  C   2.95538686556439     -0.21439909093953     -0.25367153897661
  C   3.58342353260793     -1.46118303108950      0.00944061522271
  C   2.85021157222973     -2.74696551485668      0.09114412730644
  O   3.32974970411831     -3.81637283648392     -0.77642703156817
  C   4.55783517529762     -4.42013600183819     -0.44322010943430
  C   4.58149486532270     -5.01308801569319      0.98495427491996
  O   4.69587211657349     -4.04994618688625      2.00068413502617
  C   5.84586180043359     -3.24008306598614      1.86624195589289
  C   5.90673477900437     -2.47512360086703      0.53994733631621
  C   5.76969709588280     -3.48324599504996     -0.60924702175333
  C   4.96808690657707     -1.29950028599502      0.40855890733628
  C   5.48903796291796     -0.03717501035213      0.55809653158971
  N   4.84110703366547      1.13558967420174      0.37995539669997
  C   3.56030213299999      0.99627479759816     -0.07472503561593
  C   4.70065306327355     -5.55460407539045     -1.37339049416152
  C   4.85431469745190     -6.49484807359630     -2.10126296107067
  H   1.82606875244592     -2.60432827308383     -0.24105436736268
  H   2.82145893165134     -3.15078783970373      1.10759880266505
  H   5.42247383861894     -5.71973880135666      1.04380142004202
  H   3.64915850608756     -5.55225687704089      1.15535509417389
  H   6.74082390808105     -3.87936217763485      1.95191155880230
  H   5.82799528429115     -2.54287237071639      2.70318618014785
  H   6.92313298822723     -2.06925371823142      0.49777174386696
  H   6.66509126713409     -4.11228483287535     -0.64227679813087
  H   5.67429502132483     -2.96772177702028     -1.56542284649471
  H   6.54105449152951      0.05362807230405      0.82994744592558
  H   3.02297446761090      1.90701991500250     -0.31283712484876
  H   4.97584476550393     -7.31659968939708     -2.76387770802121
