24
Coordinates from ORCA-job 9631optt
  Br  2.07647631659986     -1.44393572583550     -0.54996177880667
  C   2.61246208164104      0.33367181512783     -0.09638312660757
  C   1.74806947135015      1.11178805404494      0.67614788509695
  C   0.30188433589881      1.06855232684186      0.77319362836783
  O   -0.52807706410027      1.82301698231734     -0.31538534075615
  C   -0.00100294072642      3.05340289685102     -0.45514649648802
  C   -0.27201620526679      4.16660631968991      0.28106911475305
  O   0.73206142035167      5.07058616639149      0.14941689517193
  C   1.65517441733513      4.52398851236632     -0.69061573367365
  C   3.07278824734636      4.88449874461431     -0.43315318220595
  O   3.51121127097220      4.12246829319065      0.72105010365373
  C   3.37518504210531      2.77959821519651      0.52630079174684
  O   2.34116790560718      2.28636563191635      1.23031464909974
  N   4.13800168652578      2.15754749551952     -0.25495773064288
  C   3.92240458623745      0.75528535475946     -0.45013273586167
  N   4.91182597674434      0.09114856828454     -0.95902967366326
  C   1.21175274787863      3.33189676138522     -1.15906660149635
  H   -0.04417083523693      1.53300180950714      1.69807786165465
  H   -0.07752177039765      0.05773527259238      0.66066573718712
  H   -1.07781769992122      4.42740330092607      0.94449064217927
  H   3.20601324813897      5.92758310117735     -0.15528483840326
  H   3.70439574421224      4.62614446377687     -1.28369109986756
  H   4.63752130976626     -0.88444404624470     -1.05135510550082
  H   1.76721070693788      2.63308968560304     -1.76456386493730
