22
Coordinates from ORCA-job 9632optt
  Br  1.60125344773332      0.85222763953955      1.04948164458530
  C   3.39615715234651      0.50050224271763      0.52134308509399
  C   3.88592594041559     -0.78400068534903      0.41219957918276
  C   3.24173499697637     -2.10716894549191      0.64578939156174
  O   2.06970824850683     -2.32643581677494      1.00503326283853
  C   4.31798658576972     -3.03360912978921      0.34957808353102
  C   5.45859119669922     -2.35062941455803     -0.01332421296169
  O   6.44617731162637     -3.26019511697092     -0.29014553197490
  C   5.81848847556126     -4.45445005915539     -0.06953326954256
  N   4.59128088821271     -4.40096029411504      0.30169435242286
  C   5.28716697395813     -0.95099820076470     -0.00474046803820
  C   6.11276691638127      0.13258909136504     -0.28739427304640
  C   5.54956713955691      1.39305966138277     -0.15466929911458
  C   4.20476923768712      1.60751532551514      0.24715096419165
  C   3.99384624450946      3.02740510678467      0.26916986034718
  C   5.16277515568350      3.61515786636101     -0.10373279830349
  N   6.10672488253948      2.64203212427535     -0.35981576770215
  H   6.42043362494127     -5.33456614232368     -0.23213874094266
  H   7.14180618887636     -0.00501656982491     -0.59660168721131
  H   3.07968083273026      3.53212667269141      0.53229552091790
  H   5.40925153239508      4.65893205769293     -0.20963040227026
  H   7.04890702689323      2.80848258679228     -0.65800929356475
