27
Coordinates from ORCA-job 9636optt
  Br  1.05755368086747      0.24882582454550     -1.34501380811522
  C   2.84723360243572      0.21369546916011     -0.72266330241302
  C   3.60376170313291     -0.97222749143414     -0.80985213862497
  C   3.21246290266742     -2.26941225111686     -1.42239837775943
  O   4.33378747187236     -3.13057254221920     -1.21880010392158
  C   5.39605912214319     -2.46445998491195     -0.54078410578278
  C   5.66611195472330     -3.33293280332488      0.69729760067889
  O   6.95959853136232     -3.19669360718790      1.29983265592169
  C   7.18147888079021     -1.93894113743330      1.80629921163772
  N   7.05596901051493     -1.64136778000387      3.02788683988313
  N   7.59385465137821     -1.03940867309439      0.84447755614486
  C   6.87694612370012      0.22607724097182      0.79168184215888
  C   5.48333792678616      0.06088169610561      0.27002623216131
  N   4.73557978179585      1.25170741641874      0.25170977820335
  C   3.37902340438383      1.38113606200310     -0.13583596083657
  O   2.82473807042903      2.46581437852343      0.06219086850559
  C   4.89751972870263     -1.05239430228033     -0.30889090140395
  H   3.01328175717697     -2.18871952208186     -2.49905328921691
  H   2.32608933077952     -2.71860041686747     -0.95833828582577
  H   6.28404440067690     -2.50353495084531     -1.18973825291058
  H   5.60824781407837     -4.37422759901028      0.38627959835477
  H   4.89176012871686     -3.13360659686171      1.44536195345349
  H   6.69214172524910     -2.44596467204460      3.53045514287709
  H   7.66168730095186     -1.47969750016462     -0.06013095484626
  H   7.45390481942851      0.92289483600128      0.16832610113195
  H   6.87135469017280      0.64346473328928      1.80395237478606
  H   5.02947148508328      2.01426417386384      0.84372172575823
