21
Coordinates from ORCA-job 9637optt
  Br  1.16480663372847     -0.41697591679546     -0.81131819984480
  C   2.96577680352993     -0.35794703909506     -0.24232986095128
  C   3.58420231619900     -1.46375274425077      0.41164174674694
  C   2.84277231956291     -2.61656645519797      0.97881092541652
  O   2.98075924631370     -3.86682140134692      0.21950626598340
  C   4.26099036270213     -4.23967107434343      0.18955535885544
  C   5.39421459492624     -3.64345781761609      0.56041213151678
  O   6.46081926609067     -4.49857224260357      0.32401969432944
  C   5.97882688551905     -5.65822617602331     -0.20226227065496
  O   6.65744489462186     -6.60941663815396     -0.49514081396568
  N   4.62770265263202     -5.49745677804189     -0.30256462235631
  O   5.70398055752562     -2.44498290369611      1.07232553474699
  C   4.98167112850462     -1.35970292552326      0.56025225669881
  N   5.72268218599408     -0.34118226921006      0.28104928811632
  N   5.01761564628332      0.77695334976417     -0.08926853004804
  C   3.69338674469994      0.81814730402651     -0.55241192874954
  O   3.30705326745548      1.83880046890817     -1.12462897598967
  H   1.77467693262441     -2.42660211926438      0.98800527910462
  H   3.18552764287223     -2.85637471945063      1.99077500513062
  H   4.00478946485502     -6.20166409262161     -0.65338414186630
  H   5.59330045335923      1.52647219053568     -0.43604414221931
