22
Coordinates from ORCA-job 9641optt
  Br  1.04806242935837     -0.04270613571695      0.20442372820234
  C   2.88068068187690      0.01732416494042     -0.37823840055192
  C   3.53185859375053      1.20939890094303     -0.47761999268008
  C   3.24522736894988      2.57539779863201      0.10127987782679
  O   4.52325756147280      3.06055096396114      0.54386064811434
  C   5.52500905380998      2.46373202167237     -0.30481202164097
  C   6.79205010897707      1.95668355361825      0.42136984188005
  O   7.62966189291180      2.60731412538757      1.00836312160368
  N   6.83894513630449      0.58959399295819      0.24203301530904
  C   5.66924752487304      0.08259136656091     -0.35862297556112
  C   5.03568624510584     -1.12140351946451     -0.25647032372934
  C   3.62856066174968     -1.18479648408945     -0.49027936509587
  S   3.06040264183080     -2.83682678692020     -0.34334790962249
  C   4.67068504573507     -3.41872767744194      0.14713733410778
  O   4.95906901388072     -4.56767120702685      0.40329666235925
  N   5.53770239311887     -2.36301865769749      0.15331814587927
  C   4.91189109112695      1.20892065267525     -0.81149707842992
  H   2.57930446421329      2.54024488844086      0.96326147656631
  H   2.82808647954086      3.26683121608255     -0.64272044572051
  H   5.83029069711642      3.21876928997025     -1.04179720285486
  H   7.55945024046011      0.05019773037426      0.69263760253286
  H   6.51587067383646     -2.55940019785968      0.28942426150537
