24
Coordinates from ORCA-job 9653optt
  Br  1.14505780509522     -0.00458892344065      1.18659234784273
  C   2.92960627300016     -0.03031969592196      0.55682030545997
  C   3.59678878543808      1.07125747845518      0.20985619899627
  C   3.22794031335425      2.51961669266129      0.21002693320562
  O   4.37627592125299      3.18383556904798     -0.30106430751744
  C   5.39227464730152      2.27940723456014     -0.56944730096216
  N   6.47837121170565      2.76971804987258     -1.03072993451186
  C   7.54021992279179      1.88662625973068     -1.42313250432328
  C   7.89658892282860      0.68402097246334     -0.51528173652344
  C   6.97500034616915     -0.53327543574834     -0.67856705750224
  C   5.55811491006628     -0.30399067285965     -0.26041999516097
  C   4.93774301382487      0.95812925377001     -0.24625349447339
  C   4.82159922145831     -1.45284416321256      0.10824046886037
  O   5.19627963172885     -2.60874721809111      0.12917147842924
  O   3.45548759007620     -1.27074182778324      0.50021334233551
  C   8.02563685650759      1.09196296174209      0.88916299938232
  N   8.17542462212871      1.39081943570908      1.98636453084622
  H   3.01349399372964      2.89189380203175      1.21585039963454
  H   2.37063510821405      2.73937180290878     -0.43171932290453
  H   8.44196820218445      2.49482964539073     -1.52460561991386
  H   7.34097588434769      1.45521991777868     -2.41588647495608
  H   8.89911441334623      0.36429512582012     -0.81696394467577
  H   7.37446284512523     -1.37876624361938     -0.11554077394324
  H   7.03393955832440     -0.81973002126557     -1.73768653762451
