22
Coordinates from ORCA-job 9654optt
  Br  1.05281685779694     -0.25295185145393      0.00072880298050
  C   2.92617598784042     -0.04881263593173      0.00863067614417
  C   3.73005770045885     -1.15048779136981      0.00654245441206
  C   3.66860306640905     -2.66299490913495     -0.00038699150038
  O   5.06494080691012     -3.09404322841123      0.00276731902443
  C   5.84912397833621     -1.99412574098569      0.00822818042668
  N   7.08607375035955     -1.75400720755288      0.01101120805090
  C   7.17160701392044     -0.24847767016516      0.01659984297421
  C   5.73079090850866      0.25512635437593      0.01687622381484
  N   5.03282490285754     -0.89649120327847      0.01107548315641
  C   4.99462288720926      1.44339557997173      0.02093384219767
  C   5.72730799998790      2.67038192079978      0.02792595315753
  O   6.99208525413021      2.64913880168295      0.02844163314640
  C   5.05982901487324      3.95316554498443      0.03574562128532
  C   4.62657126319502      5.07683347578521      0.04311319846676
  C   3.49968250351822      1.32044986607280      0.01717632716428
  O   2.75582013957658      2.28823775719299      0.02064793795278
  H   3.19235771210215     -3.06815412235474     -0.89416463686711
  H   3.18568735312507     -3.07655102475952      0.88585935540084
  H   7.72960891755809      0.09115303312347     -0.85674313455475
  H   7.72841227292025      0.08510853561238      0.89296425932715
  H   4.20199970840618      6.05010651579644      0.05002644383932
