26
Coordinates from ORCA-job 9655optt
  Br  2.44978670553715     -0.87110097638523     -2.22593278903341
  C   2.64878145401817      0.31471944499162     -0.71398589671784
  C   3.13346903359095      1.59821009746072     -0.92632840752730
  C   2.70096366844529      2.43716677246704     -2.07323277442160
  O   1.23062621815928      2.62463448499416     -2.10035531440409
  C   0.74838974427160      3.17514640482581     -0.99049191480985
  N   1.19741256415623      4.22411507726707     -0.42454952836015
  C   0.54346188333883      4.32043176618898      0.87608271853052
  C   -0.55395722015845      3.21415841597353      0.87656542117366
  N   -0.32472548275290      2.52679419047302     -0.39651679474174
  C   1.57575401274439      4.18557832382731      2.00741364685722
  O   1.81253688919490      2.84659334814094      2.43412740883097
  C   2.30555417835732      1.94459970317979      1.53722220721987
  S   3.71918459197410      2.38798006357160      0.53774640181146
  N   1.74358022407299      0.81943934879330      1.45209294655266
  C   2.20740833472046     -0.18302957693316      0.54699045368750
  N   2.07657196972241     -1.44237006369880      0.85063646403726
  H   2.88423326478561      1.94791360833413     -3.02799416355814
  H   3.16292682616764      3.42274028103214     -2.04932356894235
  H   0.09576105750135      5.31276496862388      0.98477234637234
  H   -1.55552804234197      3.64533003409051      0.90299956983678
  H   -0.43566035414905      2.52416988050763      1.71202226399569
  H   -0.20286028782580      1.52099068656637     -0.35907552328661
  H   1.21648173315232      4.68177844375070      2.90975372083697
  H   2.50426007245533      4.65637420035223      1.67736696270026
  H   1.64358696086180     -1.49212892839528      1.77099414335992
