23
Coordinates from ORCA-job 9659optt
  Br  1.27170867864561      0.12889351824285      0.79804654626369
  C   3.13258434543573     -0.22620890230338      0.58762693650785
  C   3.61801244162715     -1.52719924687548      0.36270002587066
  C   3.16470465043451     -2.82634413250566      0.77424470417237
  O   2.20877771235708     -3.14344848022241      1.45763366402698
  C   4.14000982598106     -3.87204264602015      0.18150123565370
  N   3.50205308159618     -4.63128953627840     -0.89113138718006
  C   3.57684438691215     -3.91798118552805     -2.15927207936054
  C   5.01935392321570     -3.72706007296595     -2.58541688948309
  O   5.42710799551777     -3.88831207905240     -3.70188077231292
  O   5.87366398671292     -3.47335678230102     -1.57949368651410
  C   5.34144707038441     -3.03994029256628     -0.32101283435192
  C   4.82774140932419     -1.61598508741166     -0.33730362324588
  N   5.48684130990738     -0.63654356706316     -0.89348342931194
  C   4.92651606221459      0.61851116093254     -0.78387494093437
  N   5.37723815773853      1.67691645169767     -1.31800739005732
  O   3.78411586318945      0.81118114319624     -0.01351977224720
  H   4.41494969145963     -4.57097613056883      0.97121475836351
  H   3.95525389208004     -5.53192344902438     -0.98790883596718
  H   3.08774574866700     -2.94653183676685     -2.05141461746704
  H   3.06826554924669     -4.47030323356277     -2.94616500028327
  H   6.19417171684100     -3.10302137487950      0.35548996240849
  H   6.20789250051112      1.40996576182712     -1.83957257455040
