24
Coordinates from ORCA-job 9662optt
  Br  1.80156175122603     -0.61352639676366     -3.11650304742879
  C   2.93325039932480      0.03707760099563     -1.69978479049338
  C   3.24148280519420      1.38722888134350     -1.67563023737701
  C   2.46116187426728      2.45735109377398     -2.29787251346867
  O   1.25852945452624      3.00689688633660     -1.47380605117168
  C   1.60985766281091      3.15431431117051     -0.21065002124367
  N   1.69163835156781      2.20980159454637      0.69639227573833
  C   2.42216688310488      2.80122505570326      1.66841335290048
  O   2.97502839217413      2.07237283511747      2.65680769453776
  C   4.20723216364681      1.43072471066340      2.20947789573509
  C   4.14261640139660      0.83899751909044      0.82818612567193
  S   4.55114679907919      1.85657099985416     -0.57602316056352
  C   3.65597506529934     -0.38123286263758      0.58475411201463
  C   3.33892822717304     -0.93966482530024     -0.74353839388925
  N   3.26159944122898     -2.23711085323075     -0.96241438680407
  N   2.70861836222835      4.07088898059143      1.48878567274899
  N   2.15190647887258      4.29444928863675      0.27218909035889
  H   1.96090367131978      2.13327396093698     -3.20443837057180
  H   3.05653702476782      3.35327900707949     -2.47415201653533
  H   4.38414073095575      0.64774095658134      2.94576775428632
  H   5.00015531726656      2.18060836574826      2.27589102618681
  H   3.36467087377952     -1.00047225221337      1.43112881471015
  H   3.52420955661377     -2.72583516354782     -0.10786374853826
  H   2.28868231217558      5.16504030552379     -0.20911707680393
