22
Coordinates from ORCA-job 9671optt
  Br  1.01083714483900     -0.06987619620813      0.34201925148398
  C   2.90662629030633     -0.07787294903976      0.19115163615515
  C   3.63478644485022     -1.19540689163912     -0.10664053945272
  C   2.93575686460912     -2.47325468760769     -0.50718778858971
  O   3.18902558320827     -3.59511030820370      0.33798477258909
  C   4.35696071619134     -4.19635058839180      0.08690486133013
  N   4.45931924674428     -5.48766733479620      0.21169096131137
  O   5.77523553675239     -5.77360852533785     -0.09330610402680
  C   6.40896153189917     -4.63511950602175     -0.40789094434312
  C   5.57514273853929     -3.56695763764175     -0.31634040082564
  C   5.98718959690284     -2.15898051495600     -0.44400523538305
  O   7.19543018322547     -1.94088557285491     -0.66780615972351
  C   5.06420676786510     -1.07962963546576     -0.18376198514556
  C   5.61998538180933      0.17981224013206     -0.01098878987819
  O   4.85911892476617      1.30164979793143      0.24603150348265
  C   3.51333329800727      1.23238226628630      0.40091985179843
  N   2.85403627266367      2.28222832508430      0.68964680957855
  H   3.22630683442788     -2.73010692312382     -1.53030751211153
  H   1.86171890955060     -2.33880471244547     -0.47588125895569
  H   7.45505643044064     -4.70112967873964     -0.65251578464685
  H   6.67339195244825      0.38701960986152     -0.05884508771820
  H   3.50457334995331      3.06166942317774      0.76812794307123
