21
Coordinates from ORCA-job 9675optt
  Br  0.92324236048194     -0.01006179559620     -0.13422776116770
  C   2.83044995107884     -0.01184215757550      0.02673569635236
  C   3.53778948280592      1.12835282064874      0.01431641448694
  C   2.89324546927642      2.47155249411286     -0.17352140162641
  O   3.55561481462438      3.48730720404616      0.55170565026983
  C   4.89106084811890      3.60866822828245      0.30857016486466
  N   5.34976354903541      4.78800640918335      0.44142348290898
  S   6.97694436453685      5.09802976954697      0.27817166065494
  C   7.73296283740523      3.53018455508049     -0.16550427497631
  N   8.98365883756424      3.50814917531776     -0.44586900928188
  N   6.97523488294049      2.41049361225711     -0.17534096069268
  C   5.66217263331429      2.39639294718134      0.02733699160509
  C   4.99041152655036      1.12478566196057      0.05672254432131
  C   5.74759937082867     -0.04030407392651      0.08553749884033
  C   5.27093825926605     -1.37065993824286      0.12326747922767
  O   5.91147279353382     -2.40335570142295      0.16659545265478
  S   3.45780725232047     -1.61955713820745      0.11515030280496
  H   1.86826737838188      2.47740394512678      0.18311168641030
  H   2.89164395451826      2.72997455114262     -1.24072600676081
  H   9.38317091917611      4.44337042118211     -0.39384528490598
  H   6.82454851424141      0.06310900990215      0.08838967400960
