26
Coordinates from ORCA-job 9680optt
  Br  1.13284441606701     -0.04716689362802      1.88034061160805
  C   3.02775417300015     -0.20593598943111      0.24803784423886
  C   3.77027826280473      0.86816893059017     -0.14687989341403
  C   5.14967211835733      0.63229620386613     -0.34794373451192
  O   5.80883166911077      1.77366282904329     -0.66828773708896
  C   4.90441703572454      2.87735034000654     -0.61519518853974
  O   5.21116272357299      3.72868428069843      0.43782292799722
  C   4.36775643647799      3.39308978166624      1.54492131205947
  C   3.02754006973749      3.06812032554814      0.90465833241384
  C   3.47660408566704      2.31189234383932     -0.34886362839316
  O   2.67013170532401      2.61878239453868     -1.49743915321102
  C   1.41789832513861      2.10991353002211     -1.51256855078878
  N   0.61532712611476      2.30203204877803     -2.46373350984244
  N   5.79013508060684     -0.48302267927780     -0.24695149145938
  C   5.03576459558190     -1.58811016037472      0.10309765250924
  N   5.47234768707195     -2.78411677718760      0.22656403138467
  N   3.66324887559214     -1.37633518455607      0.35715775589649
  H   4.99565399359401      3.41932758761270     -1.55360290232136
  H   4.34798959723572      4.25138800230998      2.21301315506584
  H   4.77420039431487      2.52783232159844      2.07745642382445
  H   2.52263343474200      3.98921643307044      0.60679922615879
  H   2.37478240368423      2.46370115670905      1.53333314807163
  H   1.13943687994967      1.51528780819019     -0.64061069799535
  H   1.06526968310481      2.86981925786213     -3.18379105361358
  H   6.46752629468107     -2.77885846624977      0.02425961226591
  H   3.15679293274331     -2.18901942524494      0.68040550768527
