23
Coordinates from ORCA-job 9683optt
  Br  1.33157793799662     -0.74754522476981      1.00383247021331
  C   3.13035131791176     -0.30342905147691      0.45337504477331
  C   3.53017443522318      1.05878308594931      0.37969132204305
  C   2.60633973564205      2.19610491527339      0.47521518614834
  O   1.46332648251923      2.31001451344645      0.83262619701384
  C   3.61260603521013      3.38375918287822     -0.13605205788710
  O   4.55585237742450      3.19990940201054      0.98437109183361
  C   5.61432128103041      2.58208819726465      0.31692052924945
  C   5.87724539875330      3.76114546073381     -0.70228676450266
  C   4.51033947182718      4.57399687700893     -0.64000076877794
  O   4.34457996976745      5.71891175884895     -0.90596021461917
  C   4.97382589172423      1.20874066113694      0.04581973259469
  C   5.71434468495177      0.09019488732592     -0.24915656896418
  C   5.13651633519564     -1.17130444054441     -0.21259912477549
  N   3.84822614858622     -1.34326234253338      0.17627977150898
  C   3.67374380167067      2.73253317012084     -1.48489568173991
  C   3.49862723943458      2.49010856068104     -2.65118265552888
  H   6.47497153514210      2.46782174827931      0.98167063719963
  H   6.10308382994145      3.49684909196664     -1.73333218084148
  H   6.66557940416003      4.39988189207175     -0.30350704533653
  H   6.77015199343520      0.19011004510750     -0.48221241237301
  H   5.69310454428142     -2.06710427330696     -0.45402435292828
  H   3.34011014817079      2.22169188252724     -3.66659215430357
