20
Coordinates from ORCA-job 9689optt
  Br  0.98689563899513     -0.26509227355248      0.17899309121725
  C   2.89177410815314     -0.20313305121694      0.08891322220196
  C   3.61336852149783     -1.36652127070446     -0.02111588179408
  C   3.25387503721743     -2.77348634432908     -0.10830347084450
  O   2.18191482460317     -3.32817860517918     -0.15951102989078
  C   4.59659256782348     -3.55404953812034     -0.09316385032021
  O   4.66395785696257     -4.34380320547698      1.07488501048758
  C   4.10643183762554     -5.59549611775121      0.75227545953360
  C   4.27118521777157     -5.68699701044740     -0.75123851420734
  O   4.12580563780474     -6.63855742010003     -1.45634016979721
  O   4.64228260145718     -4.47120817816154     -1.18008086550457
  C   5.70728843327619     -2.49803950392108     -0.13354381453967
  O   6.90505885618207     -2.78561940423465     -0.19321138087010
  C   5.04605078842404     -1.23910147802917     -0.05757461511009
  N   5.62988438689039     -0.00378577377641     -0.00447350784818
  C   4.80359186645198      0.99890117044313      0.09274001744813
  N   3.44159686884889      0.99480854219794      0.14938541256702
  H   3.04321405138052     -5.65660255190726      1.00113415362846
  H   4.66010588455530     -6.38928360545972      1.25069431817455
  H   5.24612501407879      1.99024561972687      0.14253641546820
