25
Coordinates from ORCA-job 9690optt
  Br  1.07819060098829      0.33583954816355      0.37706673411906
  C   2.96530807457935      0.08533200406091      0.18269863426192
  C   3.54301877550002     -1.21715413394944     -0.00648935553777
  C   2.77334037806539     -2.41697503259984     -0.19796772327448
  O   1.53488324392487     -2.55513191092467     -0.20074346439153
  C   3.66164294142487     -3.59816108622549     -0.52227853650999
  O   3.14055897891926     -4.93280002665537     -0.32035767338976
  C   4.24881185736171     -5.64142186896583     -0.02611463211118
  N   5.32349869901380     -5.03913778748045      0.27562254739164
  C   4.89985210707428     -3.62577284938092      0.33803864497638
  C   5.80294437885085     -2.50072146592405     -0.11777223150131
  C   6.41418510623507     -2.81821350916994     -1.47077082533531
  O   6.53486372528848     -2.06279174559901     -2.39488203129962
  C   5.00210426327177     -1.20952426213836     -0.03191992988449
  C   5.71892741354071     -0.03931173990179      0.05434025361797
  C   5.10315187123676      1.20771732058337      0.18223033432522
  C   3.70870615843945      1.23767095913329      0.26201289393354
  H   3.95013635971353     -3.55820735747485     -1.58566089552292
  H   4.12933726027261     -6.71789234898506     -0.06426068705882
  H   4.62222705978383     -3.41972655740566      1.37873933796376
  H   6.67046702269100     -2.43791469514107      0.55320576679765
  H   6.79914476504203     -3.85595390396167     -1.54220470920993
  H   6.80249349420867     -0.09947091545484      0.02265354890933
  H   5.68114877394566      2.11963873384196      0.23790693011110
  H   3.19205669062767      2.17908463155525      0.39790706861955
