24
Coordinates from ORCA-job 9691optt
  Br  1.33525028270039      1.78185055215092     -0.63602991740184
  C   3.02481247780179      0.92738482011802     -0.52308935507475
  C   3.13706809385484     -0.47761351223691     -0.42939036819609
  C   2.18764850519963     -1.53635659787799     -0.32067757874579
  O   0.94384203558938     -1.52805620768366     -0.32138514183658
  C   2.99253910484285     -2.83621249577762     -0.14975629452590
  O   2.86947078888475     -3.33216116056150      1.21754165583385
  C   4.07827152965378     -3.44619788066983      1.81386838035347
  N   4.24210293762439     -3.80498574869079      3.01248303243726
  C   5.18265662995435     -3.10985827475900      0.84208967276318
  C   4.46453789280193     -2.48765845176560     -0.35227645221259
  C   4.47075138220822     -0.97480551474610     -0.39044754966892
  N   5.56815420288265     -0.27532192936399     -0.39640791760153
  C   5.42034767835104      1.07925526536842     -0.46149836079422
  C   4.17970137143907      1.69282800613192     -0.53341175144980
  C   2.41906642467822     -3.92609787801242     -1.02212713266514
  O   2.99044250756449     -4.44409478698511     -1.94640641454361
  H   3.33692889492606     -3.98216788514409      3.44635434084789
  H   5.69418032495457     -4.03524841555840      0.57410873338342
  H   5.90995571774937     -2.43834016458869      1.29363944956848
  H   4.82768974880134     -2.88065271088807     -1.30175380456303
  H   6.32825697002067      1.66870479288765     -0.46026052165511
  H   4.11283671282716      2.77130283568750     -0.59540903848253
  H   1.38948778468901     -4.21149665703463     -0.74575766577014
