23
Coordinates from ORCA-job 9694optt
  Br  1.41272218618909      0.01547657386881     -1.47961976604017
  C   3.25139032889194     -0.08924498404308     -0.89190191732926
  C   3.67550113500404     -1.17382564026854     -0.19452745366365
  C   2.89862214571542     -2.38224777565656      0.20694676980944
  O   3.69447087301976     -3.55518272584830     -0.00764462050146
  C   4.85502781032022     -3.61716925158795      0.74478450484478
  O   4.57089824288105     -4.14713818460281      2.03995816130909
  C   4.74227036329415     -3.19648218391004      3.00580305168069
  N   4.48526626150085     -3.38031493073310      4.22724813520329
  O   5.20279552250029     -2.07008317835112      2.49690592562494
  C   5.53470623702048     -2.24759605397820      1.02552740556910
  C   5.04958364548575     -1.17457671934904      0.18234864090612
  N   5.85854545943858     -0.10045526258256     -0.12288206959828
  C   5.29152736926145      0.86724605869733     -0.78775626029886
  N   4.01038139597119      0.97129666647072     -1.22046438029772
  C   5.76628608250562     -4.54393874797478      0.05445974982120
  C   6.53391473827122     -5.27152091227860     -0.50300700341805
  H   2.00602545486781     -2.51592107343093     -0.39718675571108
  H   2.60663308498098     -2.33599748016919      1.26396071652550
  H   4.12079670286829     -4.32088809832075      4.34684409566528
  H   6.61934318840059     -2.32675619815834      1.00144693917891
  H   5.92163654431378      1.71830509827498     -1.03668751357107
  H   7.20865522729735     -5.91698499606789     -1.01055635570877
