21
Coordinates from ORCA-job 9696optt
  Br  0.94850319889185      0.14660281775635     -0.63222899687809
  C   2.62735378293897     -0.14303629893898      0.28201832243906
  C   3.31698481500163     -1.37959125693057      0.10658133654282
  C   2.56582175193754     -2.63452878698271      0.03086411764635
  O   1.39539643566182     -2.80259113190732      0.29215937339319
  C   3.46455443919788     -3.75192958822467     -0.45309254557370
  O   3.03098789037123     -5.09418197294549     -0.25584909106889
  C   4.11899506144346     -5.87292074064986     -0.03986984440921
  O   4.05165007771406     -7.05960772039548      0.05491750182389
  C   5.36868589229224     -4.99824074754295      0.05756863387265
  C   4.74197558700786     -3.65534192513713      0.34984057295794
  O   5.46365647696924     -2.52116437454964     -0.02416840315324
  C   4.73154936842490     -1.34988394851761     -0.02145012391860
  N   5.53431677782440     -0.32259909775317     -0.14485694968034
  C   5.16041559747068      0.95637291465395      0.02247359674679
  O   5.85247752144669      1.93125109202130     -0.15202478428826
  S   3.47340325952115      1.30514004438606      0.66531991145840
  H   3.68891823204686     -3.59813078380652     -1.51529182618382
  H   5.86317452435316     -4.98459097847159     -0.91729613973390
  H   6.05363916193467     -5.39109133676939      0.80330649908170
  H   4.47754014754962     -3.58993617929454      1.41407883892525
