21
Coordinates from ORCA-job 9699opt
  Br  1.28941336124856     -0.15415139366103      0.76695720774691
  C   2.97037782700292      0.12103707904017     -0.13215156223691
  C   3.67207154870296      1.35653853236187     -0.07909260695098
  C   2.94738728324139      2.65245534880332     -0.14321960645167
  O   1.71488098475135      2.70019810063664     -0.26205070853963
  C   3.78813505197087      3.80917496412038     -0.06675945160014
  Br  3.01381899303247      5.53681059753399     -0.11151288334396
  C   5.16079133391811      3.69006713654701     -0.02551587304657
  N   6.17411288434441      4.61792224830127      0.01448110058688
  C   7.36478333952031      3.92409513093362      0.04039776609105
  N   7.20077845124185      2.63684291955636      0.02205158417389
  C   5.82658201719249      2.45623562385422     -0.02105571462493
  C   5.06786616575216      1.28822622071332     -0.03527109666883
  N   5.72220574384388      0.05836607562281      0.00404797572579
  C   5.09362680632501     -1.14998078384889     -0.07662139250568
  O   5.68312739106108     -2.21792036330673     -0.09030969979527
  N   3.72892561067364     -1.05553566423062     -0.15302694015445
  H   6.04036473178256      5.61421900124047      0.01174199862315
  H   8.31370275594806      4.43654761316864      0.07336299277169
  H   6.72989722386002      0.05223697678515      0.04090319013746
  H   3.25015049458554     -1.93938536417209     -0.22135627993778
