27
Coordinates from ORCA-job 9703opt
  Br  2.90759794225982      2.68156761943385     -2.48303484390338
  C   3.54239429777318      1.41549187704384     -1.17728396213884
  C   3.08266172528178      0.15342507722391     -1.17037566204412
  C   4.01296675320755     -0.89376085183685     -0.57155963645031
  O   5.35152025051226     -0.45342999019164     -0.49481933596292
  C   5.56734502517436      0.83336531803299      0.12046095388513
  C   4.36054870004022      1.71243313222300      0.04485869989462
  C   3.40592108790178      1.59229141012353      1.06077646471613
  C   2.05802597261055      2.29069716811579      0.91806703230320
  N   1.11582390434874      1.18391195032139      1.08697197781563
  C   1.88882176061596      0.10835681043051      1.51408435895467
  C   3.16292720344917      0.52838068411893      1.96759959961383
  N   1.52497418692972     -1.15082150306067      1.31260838430679
  C   1.03793362344951     -1.63359743017316      0.15488651787584
  C   1.21410440299763     -1.35131495225494     -1.25699796469411
  N   0.63616489845526     -2.02943032762135     -2.19682285180957
  O   1.95583900515501     -0.28282088174526     -1.78186232454536
  H   3.66935148087583     -1.29022291988345      0.38238723881763
  H   4.00095547475857     -1.71727514389786     -1.29242086398737
  H   6.42603775065166      1.24481873987238     -0.41378002433386
  H   5.85361583627926      0.69063250019389      1.16953632614652
  H   1.91495849878104      2.79738769101720     -0.02957318624384
  H   1.94804218871471      3.02394831406535      1.72311037045695
  H   0.53512482113216      0.97598952435164      0.28475099087225
  H   3.90369028639544     -0.21664359509687      2.21276362438230
  H   0.50474934227468     -2.57346068237379      0.26899696720703
  H   0.04290357997374     -2.73791953843238     -1.77332885113483
