29
Coordinates from ORCA-job 9705opt
  Br  4.77936025807245     -0.63091165227653     -3.11013192332755
  C   4.41845071442402      1.16702580558361     -2.61257363016724
  C   4.30463999034554      1.75721284082288     -1.27294596525222
  C   5.17213080307590      1.16881457341398     -0.17980532331837
  O   6.51243695639490      1.08171787550714     -0.65948986507476
  C   6.73769651460900      1.98382708562101     -1.73707030359594
  C   5.38058731168800      2.22934680426588     -2.30153097619903
  C   4.52312888703872      2.45187877695933     -3.47553535947413
  N   4.71312697609498      2.14472599916457     -4.87916437063593
  C   3.30101524756235      2.35292691691495     -5.41228564796972
  C   2.55545084257188      3.15407463853950     -4.34564543714120
  N   3.62049754128790      3.54935329179815     -3.49309821952440
  C   1.23107323571339      3.08104471228733     -3.83622711097872
  C   0.89343003531663      2.89838269190158     -2.45051487937150
  N   -0.20696095644793      3.19784635540361     -1.80142924379110
  C   1.97253307930973      2.09683066751707     -1.78295166413194
  C   3.00677196611806      2.46793021149502     -1.02272761797305
  H   4.86529328098007      0.15838414134655      0.09860960127136
  H   5.11887968684018      1.81189538424319      0.70663342153270
  H   7.40259573145491      1.49119442932320     -2.45084178259865
  H   7.21075107241210      2.90489741298971     -1.37812821298401
  H   5.27622697301561      2.89518312037834     -5.26554600100122
  H   2.83283644038247      1.37904031769793     -5.57689088687222
  H   3.40272212783101      2.84866535238455     -6.38351571594261
  H   3.33763033812006      3.93306951135584     -2.60898209216871
  H   0.38996987541049      3.17378624985710     -4.52245235095933
  H   -0.81355949828263      3.72025232492874     -2.43664568786533
  H   2.09762864696711      1.13873969717739     -2.28291935900516
  H   3.01365592169299      3.41286446339833     -0.48319339547996
