26
Coordinates from ORCA-job 9707optt
  Br  3.46204076121009     -1.72670052485222      1.26483128618891
  C   2.81151280896593      0.09431665717782      0.71605935438207
  C   3.77154006292301      0.97331491675891      0.30030202342576
  C   4.73630639565361      1.26440084740626      1.40049500843984
  O   3.88869224327613      1.96253773799135      2.34812090800216
  C   2.65111404937014      1.37000194512221      2.71421506007796
  C   1.83468116603120      0.65108234997939      1.58603338987871
  C   0.50244171241458      0.42682868822754      1.76654129563749
  C   -0.47480758675654     -0.25739175915385      0.99886229096206
  C   -0.61742484505280     -0.72663597443811     -0.29451617671616
  C   0.06244383123713     -0.60065296868525     -1.55232603009153
  O   -0.24430548319778     -1.33126351248924     -2.52304520194952
  C   1.11293492977271      0.40036134189323     -1.80379360385361
  N   1.31537170604520      1.41561057126555     -1.06415599246919
  C   2.36886415451274      2.27390426241994     -1.32131891804884
  O   2.37695437776155      3.15823112284512     -2.15690200943522
  N   3.44030111231705      2.10227987830586     -0.46565911138342
  H   5.52850774015715      1.97887218079812      1.16872864602400
  H   5.15344523803707      0.35602311034842      1.83066725256008
  H   2.84310453307138      0.60840718527453      3.48419141703184
  H   2.06617674162953      2.17916197982583      3.15132458187222
  H   0.10742288002017      0.82115774461115      2.70246235961180
  H   -1.35099780138808     -0.48599422409401      1.60220499422262
  H   -1.48791562488042     -1.36354125427487     -0.42922722056942
  H   1.72089096454162      0.19082595210165     -2.68988545921694
  H   4.17970393232756      2.76986174563465     -0.62821014458370
