20
Coordinates from ORCA-job 9710optt
  Br  0.79557719462130      0.37688260198821     -0.00172275896093
  C   2.69091650027088      0.24932306881874      0.00117138000784
  C   3.31218553536143     -1.01406395630474      0.00192024118562
  C   4.74367104063495     -1.05751954243874      0.00315631700150
  O   5.51578010848269      0.06095459941958      0.00368004341545
  C   4.86724873370166      1.27701894358150      0.00357857598591
  C   3.47771637584032      1.37826499670219      0.00215390698423
  C   5.71689507761766      2.39482305661042      0.00478639267914
  C   6.43100363063383      3.37040230877754      0.00650927033651
  N   5.27285161321622     -2.26576234668467      0.00371016470231
  C   4.16558434767081     -3.06332515539006      0.00289204705944
  C   2.97429048792819     -2.37870995299851      0.00185049789992
  N   1.85132827104019     -3.20892115380182      0.00179896384102
  C   2.12799797225145     -4.55228982710371      0.00271854682212
  N   1.32764356603052     -5.55115614543633      0.00285793858418
  S   3.89561089179883     -4.79372423000025      0.00375652659725
  H   3.04769989264014      2.36893149773661      0.00184609747218
  H   7.05888825971433      4.22676709406222      0.00723628638075
  H   0.90423920699875     -2.87113043817382      0.00088790977555
  H   0.35987129354580     -5.23676541936435      0.00221165223004
