27
Coordinates from ORCA-job 9718optt
  Br  3.27702077588828     -0.54301742564431      2.97917570098655
  C   3.93800559434446      0.50897631240348      1.52509581879184
  C   3.11464180549809      0.75204828792404      0.32839954945536
  C   3.99255275650970      0.93396451090638     -0.87225634142002
  O   4.78072283348400      2.13408734629335     -0.70538459606259
  C   5.45377588964314      2.18360789069608      0.54791090146616
  C   4.63577424497319      1.77562657812285      1.75878569663345
  C   4.06811259487005      2.62248569061069      2.64241233117100
  N   3.98822113400547      4.01700274885957      2.54931762474541
  C   2.77553950281796      4.57889583601062      3.13900157418906
  N   2.85178390928913      5.23191629992954      4.22970530742807
  C   1.51572828649357      4.47917607032574      2.40250301674046
  C   1.12086707731516      3.44232222846996      1.59600537128735
  N   1.75452100448449      2.24529002767075      1.58249805075045
  C   2.08900132938217      1.67668579001308      0.42703824237827
  C   -0.03050715818318      3.65081556703901      0.73871177121601
  C   -0.98046569567170      3.76840618474988      0.01208850958172
  H   3.41786783551116      1.09875354561330     -1.78486230706092
  H   4.67630787289888      0.08854000898003     -1.01756529774913
  H   5.82336980116707      3.20528889938467      0.65788228974455
  H   6.32665300610766      1.51594543419206      0.49889481910436
  H   3.52953387069321      2.21232474950568      3.48619920344267
  H   4.05066515582132      4.30215266968634      1.57659956745280
  H   3.83117146161962      5.26766952954191      4.51206113931737
  H   0.85517339696779      5.32774707008761      2.51796195840600
  H   1.69703239690493      2.08640496685652     -0.51348802921256
  H   -1.82207068283570      3.87488318177115     -0.62769187278373
