23
Coordinates from ORCA-job 9719optt
  Br  3.22376945440606      0.99854852136886     -2.77642554955441
  C   5.08581702947265      0.63365786904861     -2.42739500705554
  C   5.97840026754180      0.21103196711444     -3.44368541896078
  C   7.04385797788326     -0.68895311079288     -2.93356824582404
  O   7.57941257921656     -0.23878069531925     -1.62374796035264
  C   7.02725590261390      0.90382174856382     -1.15738043160382
  C   5.56597048831013      0.94613506792082     -1.18243723173249
  C   7.58701094024547      2.09247050094582     -1.66734546290459
  N   8.34991534198814      1.98485177103894     -2.73012654613889
  C   8.35446565640038      3.02964207216491     -3.60044648982342
  N   8.37236719182341      2.88529046100968     -4.87301416271162
  C   8.28342913674032      1.60667558667342     -5.43686249813800
  N   7.34077748976123      0.75772303233549     -5.37935878540914
  C   6.14116467228685      1.00376993830509     -4.64148777896595
  O   5.33844295905256      1.81788539500550     -5.07185764476581
  C   9.41957350359393      1.28701599944774     -6.28879889009074
  C   10.37301468316700      1.03267708264083     -6.96956374313313
  H   6.65604393083646     -1.68735572905643     -2.71803457528167
  H   7.88105397955188     -0.75223246802452     -3.62470885742157
  H   4.94407205349249      1.40854431393658     -0.42745084095876
  H   7.15428787007168      3.04956578704671     -1.35914487318681
  H   8.30235807840972      4.05525729743180     -3.21618388626975
  H   11.21253881313398      0.79775759119400     -7.57697511971636
