21
Coordinates from ORCA-job 9721optt
  Br  2.23716767523786      1.07596718712943      1.56485563249396
  C   3.79537278133829      0.50538880306198      0.63167672572943
  C   4.76092721830181      1.42852463313283      0.16259013675315
  C   5.97837733532156      0.88969539791361     -0.37687448576706
  O   6.12597618951273     -0.48429003917937     -0.44621620499855
  C   5.15212155706963     -1.33162025656452      0.00196719625935
  C   3.98537105675352     -0.86144708903433      0.56075460674033
  C   5.45148835812958     -2.69963655733079     -0.14760870175970
  N   5.66867550147639     -3.83007949206536     -0.25680527683935
  N   7.02242155253017      1.42871209672087     -0.89676851347782
  N   7.22570047450730      2.78535624295442     -0.98767181845792
  C   6.89340304515946      3.83057617150850     -0.19096002930587
  O   7.55212656748739      4.86045702426371     -0.19960383618514
  C   5.63879172476829      3.73964176358802      0.64262361280019
  N   5.50526188276762      4.46096004679407      1.67043087017935
  C   4.52174979862302      2.87074769195873      0.15149725136078
  N   3.44087486071395      3.47248725457158     -0.16381060877552
  H   3.26082858628822     -1.56125682191260      0.94641557638889
  H   8.07522539546126      2.97042696710155     -1.50059845930246
  H   6.35834389498514      5.01705264021102      1.78154193559174
  H   2.74679454356676      2.79933633517664     -0.48643560942778
