24
Coordinates from ORCA-job 9722optt
  Br  1.06861631848626      0.02017813897961      0.04194627354229
  C   2.97481247097579     -0.06650296236414      0.04206285728316
  C   3.68373022484775      1.12026144919374      0.04209849185195
  C   5.11961501248747      1.05445125950572      0.04221260179295
  O   5.79399928220894     -0.10727096159593      0.04226809459103
  C   5.05565658240653     -1.27974335035843      0.04224746743094
  C   3.65629251527350     -1.29583702253431      0.04213601039707
  C   2.98942781606227     -2.58163845887624      0.04207801387681
  O   3.55685840082842     -3.66501850312422      0.04209936722871
  C   5.70354993065811      2.29594226270493      0.04224568383730
  C   4.64625391108487      3.26047487741369      0.04214755873932
  C   4.67083666399032      4.63061981220996      0.04211905599101
  C   3.45822241167131      5.39712161992834      0.04200454169133
  N   3.29465114998831      6.68700368829194      0.04198105680316
  N   2.29992609929872      4.63041014505102      0.04190604787308
  C   2.23474484093938      3.26616311689734      0.04193008799497
  C   3.37511670821672      2.53448857969286      0.04205849050614
  H   5.66261883875894     -2.16718731199908      0.04229695949410
  H   1.88884172924490     -2.54099754262400      0.04195289799805
  H   6.76225345830795      2.49950065032584      0.04232561484360
  H   5.60673851726804      5.17551202054594      0.04217687330043
  H   4.20235256307588      7.14043538565962      0.04205361924070
  H   1.45037195409499      5.17215902963003      0.04181252853083
  H   1.24251259982457      2.84247407744574      0.04183980516106
