24
Coordinates from ORCA-job 9725optt
  Br  0.86706067526333      0.73574514228367      2.41553436924324
  C   1.87892505175104      0.89886353842238      0.79185110727289
  C   3.00325990740021      1.78882875739966      0.71445811687039
  C   4.02526633831157      1.34269212095095     -0.31617333475641
  O   3.43080899825996      1.14622517823948     -1.58589919252841
  C   2.33878362199213      0.25139931677374     -1.52169027082226
  C   1.30827919579225      0.68244278265688     -0.48006979915390
  C   0.04476929985387      0.94367004410245     -0.94906532097979
  S   -1.04519387326765      2.13616521253799     -0.32863857689169
  O   -2.06713769453651      1.63882717966714      0.55041479209246
  O   -1.49508408759352      2.90973122621381     -1.46960450008383
  N   -0.01829540211630      3.01411947379483      0.61319146320260
  C   0.41530701350335      4.16238259036986      0.34244400936576
  O   1.41897503057059      4.70401040234262      1.04326487770191
  C   2.09130397469848      3.78978749634024      1.91091812936697
  C   3.14304661214072      3.03220467964147      1.25612803339071
  H   4.49334408062478      0.40509626846372      0.01510449030365
  H   4.79281933524258      2.10413929848837     -0.45334841293169
  H   2.70437095160473     -0.75427791824872     -1.27275793443421
  H   1.89418308892223      0.24122057455391     -2.51614355280342
  H   -0.19831168533675      0.75034301590206     -1.98471155999649
  H   0.05256573364182      4.81259390713319     -0.45432537791468
  H   1.44507852028436      3.39523948668590      2.68089438221067
  H   4.01287531299271      3.60455022528438      0.94222406227550
