25
Coordinates from ORCA-job 9728optt
  Br  3.69524574933734     -0.45298847605524      0.79470788871463
  C   5.45833024648192     -1.11032652131614      0.82185264918013
  C   5.44863119891715     -5.72683586195398      4.03743272511198
  C   5.88001522822270     -2.19418684771837      1.51412485883835
  O   7.20022860374032     -2.36412770805487      1.29814863767761
  C   7.63860005714980     -1.38196030529465      0.45594879199817
  C   6.57448500519335     -0.56915415568510      0.13223093273809
  N   8.92320042531825     -1.27619826982438      0.04561017891394
  C   9.85648470458096     -2.12736799993221      0.39588646858832
  N   9.74187029073973     -3.20127449984379      1.17326819904177
  C   10.83403390545784     -3.92417403480087      1.39396684222747
  C   10.86800637019651     -5.07438029338680      2.19728292518068
  C   9.86433895483153     -5.68400876079306      2.90388618673744
  O   8.59255006400735     -5.19242465557343      2.91057727157733
  C   7.66839371044712     -5.83629017519773      3.60821024488690
  O   7.86880423256489     -6.83855278417133      4.26220564679115
  N   6.42982433774305     -5.16494478538767      3.46057667328683
  H   10.84864180879571     -1.89947051013374     -0.02310516675209
  H   11.78384590847694     -3.62335714285428      0.93233665191447
  H   11.82812342768529     -5.56979967346482      2.28505043769397
  H   10.01066117085923     -6.57633194951167      3.49183972211547
  H   6.60779451462319      0.29126982629096     -0.51152951854990
  H   5.40180566263697     -2.90447630300181      2.16452279496035
  H   4.46905562133233     -5.26199277315970      3.96137166952603
  H   5.55502880066035     -6.65564533917525      4.60059628760088
