28
Coordinates from ORCA-job 9738optt
  Br  1.51830873124081      1.11673950430780     -1.12222800590244
  C   3.04043598092073      0.39548300789500     -0.25697219347607
  C   3.34910476707449     -0.97621524492338     -0.20047681660435
  C   4.56322801003631     -1.27288254168707      0.43867259921502
  O   4.76602589725168     -2.62650920344054      0.57435378753707
  C   3.80173303492268     -3.25394932442724     -0.25365892733619
  C   2.61537094949766     -2.28142104267114     -0.42257617433551
  C   2.00558767317251     -2.54705455226181     -1.81497422256141
  N   0.67414023436632     -2.05870886380001     -2.13096084200608
  C   -0.38324779662213     -2.58389972112334     -1.29221361574243
  C   -0.58836045365326     -1.87401190377031      0.04798306934017
  O   0.58377339530972     -1.59360519031131      0.77512430009955
  C   1.61037688131821     -2.55192439625078      0.71339493532577
  N   5.45788162107639     -0.48583513927026      0.93779107073302
  O   5.12936148975672      0.88120951754207      0.81241021669682
  C   3.96394002187580      1.36067275904829      0.22668289112571
  O   3.86173297452640      2.57384412582150      0.19317103842835
  H   3.50975578524771     -4.19829437232893      0.21299369839668
  H   4.24896504208809     -3.46384697356857     -1.23288822706645
  H   1.97662824442278     -3.63719811153044     -1.95185016479646
  H   2.69913408182932     -2.15209370072994     -2.56050940474958
  H   0.66802962489227     -1.04508016522515     -2.11785720431727
  H   -0.18554617150273     -3.64785792935111     -1.13498339448979
  H   -1.33928275759499     -2.52818776629588     -1.82501248646356
  H   -1.05241561621630     -0.90029486574928     -0.12515832176985
  H   -1.27929521614879     -2.47635014629785      0.65799626719942
  H   1.19699040846829     -3.56809331443725      0.62550729311548
  H   2.15064316244329     -2.49463444516302      1.66123883440439
