28
Coordinates from ORCA-job 9747optt
  Br  1.07026663462776      0.01201071286323      0.49745379913240
  C   2.98597191304683     -0.03344841902193      0.21953887920295
  C   3.53448997877946     -1.18264268377702     -0.23429476369883
  C   2.97791190679537     -2.52755229682056     -0.58242222690013
  O   4.03291159133548     -3.19255360671057     -1.28020504592763
  C   5.28995527664160     -2.58547397948659     -0.96206381838886
  C   4.94018903365622     -1.21744022755768     -0.47084071617816
  C   5.67732283884356     -0.04709886654570     -0.22819339629866
  C   7.15593399590123      0.00880652820446     -0.52035926886130
  C   7.54689193654257      1.06123395053349     -1.55365018327088
  O   7.63550343660333      2.37904491225451     -1.04181232893783
  C   6.41682605489200      2.98735991348538     -0.69812484556956
  C   5.70011307922123      2.37033264778507      0.51392165253806
  C   6.63090564024761      2.29180339415029      1.64993136061727
  N   7.37366768320797      2.23393782168532      2.52394495467446
  C   4.99572449386123      1.05718460672435      0.23786490406440
  N   3.63199248272991      1.11327032261237      0.49419404986591
  H   2.10435103460422     -2.48668327156405     -1.23612315084623
  H   2.70453340116228     -3.09789260614894      0.31617886665151
  H   5.90430993421483     -2.60496129916647     -1.87002014337459
  H   5.80161867136720     -3.20734421189798     -0.20692387868505
  H   7.47603025859927     -0.96459415398238     -0.90090837778799
  H   7.73589722882473      0.19874035786899      0.38891978091628
  H   6.83919056355248      1.03476920963097     -2.39288451354466
  H   8.54794782576423      0.85058921711234     -1.93574761526470
  H   5.71322330784544      2.95319419710774     -1.53912973963574
  H   6.66912212814928      4.02739417251947     -0.48105139425319
  H   4.90719766898243      3.06401365814189      0.80380715976075
