21
Coordinates from ORCA-job 9750optt
  Br  1.33702201588984      0.34309279327414     -1.08332196843611
  C   2.93072398965646      0.17298765845138      0.13245039684888
  C   3.59354441944774     -1.06267602649783      0.11025556051805
  C   4.99252783779179     -1.05795324583221      0.09460346517817
  O   5.45669052267617     -2.34284326595248      0.09526083729732
  C   4.36325466019330     -3.16487283308674      0.07883225257403
  C   3.21296959848461     -2.44572863831785      0.08554112004662
  C   1.89159722510310     -3.02953409056369      0.02497247254630
  C   1.33484223035843     -3.89731639169547     -0.80962928762700
  O   0.04227248088244     -4.15661257916428     -0.39651064151297
  C   -0.17927875545178     -3.41032085971010      0.71378211477468
  O   -1.18960437809723     -3.39624426532004      1.33960969276030
  O   0.94191778290571     -2.71396873805215      0.98846495275809
  C   5.76796628081613      0.07338536433331      0.03929670530291
  C   5.08224140712533      1.32897212848407      0.01752085298982
  N   5.55713640341161      2.51613432181774     -0.05720082262805
  O   3.68997037775368      1.29601169504354      0.11599547505521
  H   4.55021313224814     -4.22421201011476      0.09571393064949
  H   1.68451325169702     -4.36320087212262     -1.71077564152942
  H   6.84436468859489      0.04783588109067     -0.01924608311657
  H   6.57011482851253      2.45306397393539     -0.10061538444973
