26
Coordinates from ORCA-job 9753optt
  Br  1.10462636986781     -0.01213159460176      0.15899590924640
  C   3.00719848270735      0.01546584743139      0.07651647364100
  C   3.70630193244285     -1.16890581609486      0.00458882555207
  C   3.23451572366125     -2.58902082774364     -0.03093202653803
  O   4.42067020325364     -3.37814272286586     -0.06498132834235
  C   5.58810118456139     -2.56071193865177     -0.07834923590331
  C   5.08601224692110     -1.15175428455468     -0.03377579336898
  C   5.82176894660636      0.03576202409778      0.00573519274515
  N   7.18983767083388     -0.00115402058978      0.01518326972172
  C   7.98942332352822      1.22348123795002     -0.05270686660982
  C   7.26524392685384      2.39988080963672      0.55321585524811
  O   7.92257257589432      3.42975054568164      0.89723213192068
  C   5.84088932825164      2.55873024562531      0.02583042559673
  C   5.86191455627877      3.08168521838789     -1.36750929727826
  N   6.00866946982942      3.42178231567326     -2.45813459770076
  C   5.09352840626393      1.24208644622415      0.05324455303521
  C   3.70562051389532      1.21714634476594      0.08756053921302
  H   2.62654995837247     -2.79851601412024     -0.91748147520362
  H   2.64332353952354     -2.85086277851937      0.85227043047028
  H   6.16726518211136     -2.77875155957451     -0.98474009800546
  H   6.21562923150743     -2.80434719844333      0.78751788387541
  H   7.60278924912637     -0.82898346959141     -0.38436904706883
  H   8.26517965298354      1.42749971312622     -1.10680183369638
  H   8.91239139073770      1.07978212489657      0.50876991832879
  H   5.33661539159146      3.30155449333434      0.64775111250379
  H   3.16536154239480      2.15567485851999      0.11336907861745
