25
Coordinates from ORCA-job 9763optt
  Br  1.07434193989186     -0.22374079942735     -0.34633445543083
  C   2.95040009212431     -0.11592220431664     -0.20966218193011
  C   3.56494028144831      1.12065828687490     -0.12155598212742
  C   2.99707631473554      2.51937110416761     -0.08644713872547
  O   4.12641076682362      3.34765257060104     -0.30179308803750
  C   5.31008825361202      2.66622338435770      0.08447969522033
  C   4.94450719079256      1.20983599477827     -0.00164394693046
  C   5.73635694612600      0.07772987591739      0.03185637459401
  C   5.11540285453678     -1.16427676739363     -0.06273814107877
  C   3.73611262766509     -1.26499826165055     -0.18465762543933
  C   2.37129970590410      2.78758677605579      1.29494409319682
  O   3.06193358309588      3.05884126862770      2.24892500203444
  O   1.07623854373696      2.62954796523729      1.22230094661128
  C   0.14601508627180      2.63406966967235      2.32123297850295
  N   0.41129373832343      3.13348782865027      3.49363772365754
  C   -1.08680421793714      2.06414920505724      1.90761529588061
  O   -1.36984740169830      1.60248931173715      0.77276073723970
  H   2.25412485884435      2.70432886999670     -0.86179497145086
  H   5.59177923192982      2.94050559883061      1.10616233770517
  H   6.10991811265024      2.95079998644423     -0.60235644681122
  H   6.81274235373682      0.15024873515861      0.12688377547013
  H   5.71104174190961     -2.06852196750278     -0.04579482014398
  H   3.25941419756975     -2.23272791338646     -0.26136796334385
  H   1.37241040938182      3.44663595514302      3.54858571782713
  H   -1.82619721147532      2.06402552636952      2.72476208350967
