24
Coordinates from ORCA-job 9764optt
  Br  0.89729560125489      0.38911449464994      0.42949138912764
  C   2.76799845284949      0.11366896160829      0.21967293583261
  C   3.52487078404983      1.23779289619294     -0.02971745113092
  C   3.09038361140618      2.66428029632595     -0.18291367244225
  O   4.27590477694111      3.38735006456165     -0.50999942246122
  C   5.43103290679839      2.56035896360137     -0.38841531108981
  C   4.90265950764481      1.18084103087504     -0.14341676631958
  C   5.55083615103473     -0.04506247322421      0.00626956099775
  C   4.80894033673982     -1.17442303052502      0.25461786462436
  C   3.38599407078010     -1.16302090814515      0.37360499697942
  C   2.64877250620589     -2.36276466080029      0.59578234107437
  O   1.43542179167965     -2.60106948623307      0.49015895952959
  S   3.64706428275497     -3.81460761988222      1.13394662374911
  O   4.29160860903046     -4.50970122628507      0.04172686917892
  O   4.45388731856791     -3.54316369759483      2.30093000191592
  C   2.34432086394977     -4.85401407371277      1.66762322533353
  C   1.54412150333725     -5.63790748837865      2.09213543276567
  H   2.65510771440799      3.05247932917241      0.74517483182422
  H   2.35461108690928      2.79810697868964     -0.98010324225342
  H   6.05631993884187      2.92212354395252      0.43862425565179
  H   6.01710370680402      2.64087419171668     -1.31056214857328
  H   6.62815253342220     -0.12496911750123     -0.08017221576226
  H   5.32940151475806     -2.11834573616391      0.33899113871487
  H   0.81619042983122     -6.32094123290000      2.45854980273296
