23
Coordinates from ORCA-job 9765optt
  Br  0.83492009266660      0.06739865832629      0.15720572303863
  C   2.72236669967950      0.02077222767803     -0.00987253050413
  C   3.48460498671736      1.20784957274829     -0.02575679068445
  C   3.03201910842757      2.64218081971129     -0.08374275228061
  O   4.22082677910169      3.40393369620115      0.08731509364774
  C   5.36799501218136      2.57300233623553     -0.10942375564076
  C   4.85110349556918      1.17042034203552     -0.05789149786800
  C   5.60632656926549     -0.02238727070907     -0.07347348383635
  C   7.00908133377076      0.00392118610370     -0.09742270984841
  C   8.21982100821762      0.06618666300792     -0.12047556642529
  C   4.83445839900391     -1.24601034381225     -0.05428936058316
  C   3.41627401594698     -1.18229940219857     -0.01552851094527
  S   2.78738831815346     -2.78916921534086      0.01659215462480
  C   4.41509013898620     -3.41220857287539     -0.02797959677661
  N   5.34703621563119     -2.49927245917349     -0.06246835602388
  C   2.37166205496715      2.97426929120463     -1.36329553340078
  C   1.83861726788942      3.23198728247585     -2.40559960173576
  H   2.34113404160519      2.89799134379855      0.72709678896862
  H   6.09239925702237      2.78753712484514      0.68007135253292
  H   5.83903435179278      2.79688218638632     -1.07428559942607
  H   9.28048844720983      0.10318320142271     -0.14337796250197
  H   4.59960119403109     -4.47511784734881     -0.01786642212679
  H   1.36975121216320      3.44294917927752     -3.33553108220443
