28
Coordinates from ORCA-job 9766optt
  Br  1.08946284899354     -0.35592365850802      0.34124160998918
  C   2.96190523983845     -0.12868974493132      0.15669736325999
  C   3.54680212822060      1.15388900455171      0.28428885676853
  C   4.92958348516502      1.27263312169793      0.05079394020539
  O   5.33501178097617      2.59017756580139     -0.07143583331275
  C   4.23253735306380      3.37818794643650      0.35057468705826
  C   2.96128499935918      2.52439730440287      0.13057815283185
  C   2.41411525267561      2.70084556312953     -1.31592637866909
  C   1.85839299059425      4.02691302584417     -1.56547748256803
  C   1.40814763324003      5.13243849404293     -1.70232492904702
  N   1.90106666688399      2.90057714555063      1.05454976139538
  C   1.76192451537799      2.44278410717737      2.32696262141385
  N   0.95957753247870      2.86943993653320      3.22554444925596
  C   5.73376091089221      0.20415057666142     -0.14215578347681
  N   5.14500372643692     -1.07388606014970     -0.01547063740684
  C   3.74912222179323     -1.30463476505614      0.00224494462828
  N   3.26289985002197     -2.50834688075161     -0.09399043914466
  H   4.22998930954194      4.31006685493939     -0.21792979671780
  H   4.31779660479471      3.59605138183238      1.42040605117239
  H   1.65092225590846      1.93747660149565     -1.48009927192635
  H   3.24000125801658      2.50854673699359     -2.00439955089348
  H   1.00586152068604      6.10668761268675     -1.83912128574578
  H   1.32273516988955      3.67960094518840      0.77407725000250
  H   2.41915292109672      1.60494381084106      2.55354689204054
  H   0.40791830142026      3.65365758072771      2.87293210867465
  H   6.79957959135266      0.25442334638838     -0.29576873009889
  H   5.66396366163681     -1.83777038503112     -0.41516811420939
  H   4.02048026964451     -3.18363716849508     -0.16917045547987
