23
Coordinates from ORCA-job 9769optt
  Br  0.83733258764455     -0.97335736926592      1.01682746016610
  C   2.61925494827404     -0.52520398574833      0.54484861223699
  C   3.54187770727859     -1.49571518579359      0.35223026230287
  C   3.37447868579380     -2.98294250367798      0.46638114375094
  O   4.63074209083836     -3.53980642413043      0.09922498322034
  C   5.60915677656900     -2.52053588178155     -0.09630671671535
  C   4.86960851817130     -1.22320704329178      0.01062927324936
  C   5.36688739919366      0.06489757851430     -0.17952760403979
  C   4.64873988030239      1.24166125520729     -0.05234907841256
  S   2.90356221067203      1.20397075824500      0.42467845339243
  N   5.28398373055552      2.40111084742356     -0.30085420493067
  C   4.77855388489475      3.61482306328619     -0.19204573592360
  C   5.60567067240738      4.73167915634632     -0.52279186664443
  N   5.18084871549889      5.94889426724907     -0.43617290373445
  N   3.90984934420113      6.16833828367333     -0.02004279134433
  N   3.14847906840347      5.17093296801194      0.28296154540089
  N   3.52363016467469      3.91446360253351      0.21780238861755
  H   2.59873741954653     -3.36403633801266     -0.20420803193375
  H   3.11371808498248     -3.27920267721391      1.48891272112887
  H   6.07582185665420     -2.66749606273748     -1.07722644480395
  H   6.39369222311492     -2.62360263181955      0.66521773458642
  H   6.40355731218125      0.20920488566683     -0.46231938238252
  H   6.62481671814701      4.56512943731580     -0.85786981718737
