27
Coordinates from ORCA-job 9773optt
  Br  1.01358877576315      0.20487568117249      0.09405579157369
  C   2.90652453060461      0.14264105104279      0.01702011169416
  C   3.64500446831975      1.34061923159176      0.02857719669356
  C   3.17432797335021      2.75514348448593     -0.01051007433915
  O   4.36274624753819      3.55124717319010      0.00187896960026
  C   5.52795557371554      2.72970808964919     -0.01390727462484
  C   5.02712742707151      1.31866035343798      0.01401786774121
  C   5.71623703702981      0.12821153027831     -0.00596608229490
  N   4.95188565917658     -1.06273434452778      0.07468297441606
  C   3.55240393331905     -1.11894701159674      0.01662027969930
  N   2.91565043840481     -2.26147592183096     -0.01636473929954
  C   3.70441702897920     -3.45184206319016      0.01620336232163
  C   2.80123238648616     -4.63371473508211     -0.00753071658145
  C   1.46487164663908     -4.79413301543959     -0.08898578853174
  N   1.16626650278057     -6.15579820581594     -0.08739260522117
  C   2.31136530198955     -6.72797568264537     -0.00622255885052
  O   3.35776776526736     -5.88225543138577      0.04638860588742
  H   2.55352647119979      3.02580048781604      0.85246624666686
  H   2.59352594080597      2.98443253418116     -0.91444693407214
  H   6.14832108041207      2.97988226517234      0.85563922359430
  H   6.11204850890174      2.95169912507084     -0.91644565987207
  H   6.78686441838548      0.01566538305030      0.06687195170012
  H   5.42650992240414     -1.91192417555834     -0.17456618729579
  H   4.34587868369864     -3.53075162962460      0.91398724585464
  H   4.39255641075760     -3.55829228378733     -0.84707703906805
  H   0.72102979879356     -4.02069658596267     -0.15025737276255
  H   2.53436606820574     -7.78204530369182      0.02426320537071
