28
Coordinates from ORCA-job 9775optt
  Br  0.96917466047390     -0.34639143821555     -0.25228918654381
  C   2.77151554124286      0.04368759320066      0.25418667958247
  C   3.72348847047029     -0.96374199528658      0.05051871120033
  C   3.49256378228470     -2.32037007302887     -0.53684546085334
  O   4.78139210948583     -2.92786235481741     -0.63461370516070
  C   5.77964574620113     -2.10425696439237     -0.04509690592277
  C   5.08027019013987     -0.83109308766636      0.33594295621373
  C   5.65178299450549      0.27869900209144      0.88100927431785
  O   7.00139920440421      0.36794861361910      1.15431250621974
  C   7.73510069734267      1.08397954003751      0.17136150686044
  C   9.15754710419397      1.20305826421289      0.62651899181256
  C   10.06734273089685      0.03150729280283      0.43616511437987
  C   10.24460299903651      1.26430651382819     -0.40274852513857
  S   4.69566523050040      1.67798275833704      1.36985667595930
  C   3.00188874770076      1.32496667982446      0.78803971303898
  N   2.12953733277625      2.26761919710053      0.94541377293516
  H   3.04336549953130     -2.27666124935449     -1.53582829678418
  H   2.84043459690461     -2.94594644741216      0.08701051913310
  H   6.58496193963477     -1.94469423788217     -0.77256926466541
  H   6.21436845778732     -2.61079452890072      0.82514219959389
  H   7.28153747090235      2.07007856551957      0.02435182823923
  H   7.69011257356049      0.54363923553179     -0.78370809681620
  H   9.29976488486487      1.78730719787087      1.52677569470746
  H   9.63956041182728     -0.84439520871463     -0.03308086232227
  H   10.80449724461486     -0.17513148413084      1.19891532290095
  H   9.95057659291862      1.21436739990632     -1.44271320102340
  H   11.09848300956319      1.89692114220639     -0.20532839316140
  H   2.55441977623445      3.09427007371258      1.35530043129698
