24
Coordinates from ORCA-job 9777optt
  Br  1.25233539940616      0.31098515055674     -0.44544006251625
  C   3.12803883040798      0.17545211769482     -0.20466569996185
  C   3.72827521953081     -1.08922509664381     -0.05775357778126
  C   3.14928966860454     -2.45863239346846      0.05139154065061
  O   4.27621799888406     -3.33573875558975      0.14449607677350
  C   5.48583603091664     -2.60309067308358      0.32658361766449
  C   5.10271317794812     -1.16988165696743      0.12289805506506
  C   5.82335462623177     -0.02349661013441      0.16057770915169
  O   7.21232472371110      0.01898708806721      0.14666598127046
  C   7.83230565971590      0.60633699084704      1.18204180157838
  O   7.31957783023683      0.97700963271436      2.19296973849292
  C   9.31676803313466      0.77477619790654      0.87894856604812
  C   10.00443050314002     -0.49322452255358      0.66415292020881
  C   10.57416483622801     -1.53450152506722      0.50947149234384
  O   5.28276406547981      1.20720499417487     -0.05030618706832
  C   3.87089758518514      1.37061250382756     -0.22408840186307
  O   3.50889437961037      2.51928371582702     -0.37726381118466
  H   2.55167349275604     -2.75055502130688     -0.81933286902071
  H   2.51448647852236     -2.57859976487019      0.94154596903725
  H   6.22468665954398     -2.96157732091917     -0.39652224572575
  H   5.88237948792034     -2.78228955579388      1.33367733379337
  H   9.76131030941719      1.30840488343991      1.71686647149813
  H   9.40355841269483      1.39189942847486     -0.01804200014350
  H   11.06571659077301     -2.46613980713251      0.36812758168871
