28
Coordinates from ORCA-job 9778optt
  Br  1.21492816141054      0.22227249031165      1.01542768263527
  C   3.02168919905992      0.26042910897773      0.38909151681677
  C   3.67586214769398     -0.95833264587622      0.15013287736232
  C   3.07422507776041     -2.33337995991922      0.17544695905058
  O   4.18193444154614     -3.23459907088374      0.05474379175669
  C   5.39240555659853     -2.52758671949120     -0.19668310909416
  C   5.03761146636367     -1.06917926064966     -0.12469406220251
  C   5.90264439774161     -0.01813905028939     -0.27018093213105
  S   5.32589396721818      1.63307821857712     -0.24617065437366
  C   3.61363597498847      1.54322328893322      0.33971495887726
  N   3.03170638531187      2.65799050664272      0.63383162558119
  C   2.09589868071030     -2.60608542376935     -0.96406682552864
  C   2.66279701460899     -2.34633087926505     -2.36429346879853
  C   1.90351243639992     -3.32303840350737     -3.23684228250433
  O   1.85212214918677     -3.34962544084350     -4.43858133330870
  C   1.18232327409581     -4.29242008239249     -2.29882469940349
  N   1.68371161405140     -4.02436164104318     -0.95837666376610
  H   2.55724865170576     -2.55492380496155      1.11625200403810
  H   5.78576872060103     -2.81830426164097     -1.17949746326632
  H   6.13180210564820     -2.81493700485683      0.55884058984440
  H   6.96661348553208     -0.13411722496156     -0.42119984414414
  H   3.67169742995794      3.44053498800557      0.52876211046654
  H   1.20927798982688     -1.98874898933193     -0.80308114465714
  H   3.72273836694746     -2.62351708513589     -2.39214893235157
  H   2.57256044792533     -1.32306136511267     -2.72374951368299
  H   1.32547795148970     -5.32653830383943     -2.61172112078421
  H   0.11034179648525     -4.07089310408750     -2.36082479025925
  H   2.52557110913380     -4.57040887958928     -0.79830727617232
