24
Coordinates from ORCA-job 9779optt
  Br  1.02905432358681     -0.10514072795527      0.10146457830588
  C   2.91706232815231      0.06198156742720     -0.06636032270003
  C   3.68640620281956     -1.08772811420494      0.00317531401348
  C   3.15728026788489     -2.47880413091759      0.19825130631916
  O   4.28138733706472     -3.33784548762672      0.12014020370662
  C   5.49385396883179     -2.58671028499287      0.09405816328336
  C   5.06818537306430     -1.15301320309513     -0.06188485467526
  C   5.90252164189278     -0.04751560092151     -0.22178063864533
  S   5.20604050284263      1.56389150401820     -0.40948499091832
  C   3.42707151362836      1.38094460501567     -0.24347161862148
  N   2.70655322451270      2.44238093981978     -0.30476595089889
  C   7.30429544924742     -0.14999016289354     -0.23925734790229
  N   8.05975208563536     -1.19820801833281     -0.10785193972121
  C   9.42097277947999     -0.73562932775578     -0.20613378319656
  C   9.32464621006174      0.76213989377536     -0.41549644106892
  O   10.18375426451314      1.58246630488088     -0.55203215041516
  O   8.00545427708965      1.05675469804364     -0.42620264521126
  H   2.43161329993134     -2.75568683443119     -0.57255914287537
  H   2.66052452816425     -2.58098353643306      1.17185917812998
  H   6.11887382438799     -2.93273012153677     -0.73186751108908
  H   6.06173491233729     -2.74668051562582      1.01703894493057
  H   3.28011209519892      3.27278480153044     -0.43181257392675
  H   9.96533304685398     -1.18444647617149     -1.04417655371274
  H   10.00651654281801     -0.93823177161669      0.69715077688960
