26
Coordinates from ORCA-job 9781optt
  Br  0.75958445783445      0.43419695606360      1.26330102750661
  C   2.70882791227615      0.18736644171626     -0.29848264635550
  C   3.56954453583680      1.26899479531367     -0.24166250590549
  C   3.27145160461558      2.71379651357872      0.00660231541284
  O   4.53667581349351      3.38617629927488     -0.08006410194310
  C   5.60581620391898      2.46020720066181     -0.21630734702635
  C   4.94825555486208      1.11772742187024     -0.35803630320923
  N   5.58135476684051     -0.03576191154819     -0.52969326135922
  C   4.75671042641071     -1.07658772285932     -0.58067194728390
  C   3.37134707230001     -1.01479799711807     -0.46731777099280
  O   2.79559522603306     -2.26086792102994     -0.55624567629809
  C   3.84796874893608     -3.20423638193717     -0.35590446865384
  C   3.54823716956403     -4.49428869302836     -1.08445798347537
  N   3.90137085809143     -4.49483247935717     -2.49439401859242
  C   4.74215807196537     -3.65117087979981     -2.89848026256607
  O   5.41098772048555     -2.70298437860080     -2.22203985554845
  C   5.13225420896131     -2.51063543686738     -0.81867434875368
  H   2.82787126017375      2.85551666481730      0.99632400750964
  H   2.59002605395532      3.13672683225934     -0.73538487502066
  H   6.25344529348007      2.49612987470825      0.66761104422972
  H   6.20836627494593      2.72323734523333     -1.09149025362057
  H   3.93372850531111     -3.37852717016486      0.72246937227654
  H   4.08150840711711     -5.31687581514044     -0.59823528729336
  H   2.48230838635229     -4.70647474149887     -0.99310689787843
  H   5.02899525500436     -3.62620439313840     -3.94667741596628
  H   6.01461021123429     -2.84083042340860     -0.27198053919250
