26
Coordinates from ORCA-job 9784optt
  Br  1.40245692249468      0.49274084865132      1.17416673734071
  C   2.94399932118013      0.05055030788751      0.00671485823203
  C   3.56072636098176     -1.18614937790170      0.16779185670806
  C   3.00677405129606     -2.55809999557600      0.32664353708544
  O   4.15175132661110     -3.41986040802405      0.20922970256200
  C   5.34177316954283     -2.67671644802893     -0.04157344568852
  C   4.91769280562280     -1.23775288351563     -0.05422628745039
  N   5.73414461208355     -0.21345242247560     -0.25232604364546
  C   5.14737464149515      1.01895777908927     -0.24622850761263
  N   5.73297818525455      2.14863161744709     -0.30883612933108
  O   3.74433936631068      1.12159140955933     -0.21340597131298
  C   1.96824166287327     -2.94258304253206     -0.75366901426341
  C   2.51887826023812     -2.66676220875183     -2.14157329044388
  C   1.63907985453870     -3.10714410560101     -3.26803064427108
  O   0.62391437112693     -3.74030568254419     -3.14689600783756
  C   1.61286481711982     -4.39765670615073     -0.56091180586123
  O   0.83137612709390     -4.79546468847152      0.25941307352762
  H   2.54127818761661     -2.73047704906336      1.30289698426659
  H   5.77609512320853     -2.98367232600150     -1.00051065955123
  H   6.07682870102949     -2.87413151371428      0.74455113880818
  H   6.73005538534854      1.95622967745936     -0.35248213485321
  H   1.07185290889059     -2.34691231045846     -0.56239930457313
  H   3.48967694670414     -3.16351094308997     -2.27719899386371
  H   2.72331362647509     -1.59879734641303     -2.26730597286350
  H   1.98766105132694     -2.81298164042022     -4.27856944146767
  H   2.16687221353590     -5.11327054135975     -1.20026423363993
