21
Coordinates from ORCA-job 9786optt
  Br  0.95970875639487     -0.11762073547539     -0.27625986672854
  C   2.83698936427058      0.00524567450531     -0.11315550605218
  C   3.62028371682800     -1.13836007080688      0.03380846464518
  C   3.25487507273247     -2.57796001956116      0.16047218898152
  O   4.49941838097061     -3.27821363218064      0.21895136879080
  C   5.60397001027389     -2.39052987061212      0.07506335697203
  C   4.99599134361513     -1.02086811965172     -0.00922877981523
  N   5.69892200394027      0.08113662535158     -0.12293086481357
  N   4.89407595506299      1.22829145480368     -0.14480930322308
  C   5.61309547347660      2.36965420190682     -0.29245082532220
  N   6.80666212860241      2.46091872344221     -0.77443258120014
  O   7.13795766884432      3.82677611712194     -0.58001447257116
  C   6.10910627052278      4.45953004053012     -0.00933864645733
  O   6.05510341360522      5.61038052460264      0.28469641383829
  O   5.12641865690181      3.54576292732107      0.18529417360396
  C   3.43903621301040      1.27063689880246     -0.29407815613301
  O   2.90817069217498      2.33576501154759     -0.55843238633885
  H   2.67008286803353     -2.93497206626711     -0.69623720921848
  H   2.67842367277986     -2.79496837160634      1.06708283249558
  H   6.16837410607232     -2.63988362900553     -0.82961329804484
  H   6.27133423188684     -2.49572168476854      0.93561309659126
