28
Coordinates from ORCA-job 9792optt
  Br  2.36220014851723      0.23098770343947     -2.17341841466997
  C   3.20687507981538     -0.05762932994286     -0.34129978900353
  C   3.78551519311540      1.08079680720135      0.28524202103393
  C   5.09539960548933      0.94341760900236      0.79130331270036
  O   5.65561196944188      3.23033539148909     -1.05406511568188
  C   6.45554567818347      3.68090090340094      0.00885225531535
  C   5.81537114178662      3.42547368753741      1.36921825868271
  C   5.75783236530386      1.94019116379525      1.72715729461659
  C   4.37954317435404      3.83236037817298     -1.07847123404977
  C   3.58668980469789      3.67049558640144      0.22414896694018
  C   4.44934979754255      4.09927806631227      1.40741230442169
  C   2.95660371139285      2.27867230168611      0.33350698408601
  O   1.73518517123350      2.23053085817910      0.31883001613095
  C   5.78670545837127     -0.23265500313683      0.60111789209211
  C   5.19036875816430     -1.38158653812183      0.00073187508261
  O   5.69365817202413     -2.46717176461694     -0.17548935876308
  O   3.85313184956311     -1.24241885865990     -0.35757328299955
  H   6.64747797542851      4.76118201698814     -0.10212908851295
  H   7.40601329341751      3.15090081012625     -0.07860231252740
  H   6.45657407237464      3.90196054299692      2.11954662020607
  H   5.25010260137015      1.85057757550832      2.69446401273353
  H   6.78136130861624      1.59402897096766      1.88729332309877
  H   3.84336132724602      3.37119691074635     -1.90824459219495
  H   4.49607848708182      4.90911628794546     -1.28272867721110
  H   2.72211677834581      4.33361465843418      0.15833905221179
  H   3.93782471212324      3.88580566955436      2.34954361243562
  H   4.59014266026859      5.18519140858191      1.35374553499257
  H   6.78735970473053     -0.37155381398902      0.98356852883336
