26
Coordinates from ORCA-job 9793optt
  Br  1.39186121749203     -0.20021752599257     -0.76662297031650
  C   3.04237479807861      0.10973249091222      0.18183474691004
  C   3.74231043095441      1.32773956973318      0.01022373556764
  C   3.47416952303846      2.66309398663842     -0.49126175375223
  O   2.41966070532258      3.18852574364629     -0.80160414393243
  C   4.85781582786379      3.35704636072264     -0.71700407230363
  C   5.88064419587507      2.48113408248089      0.02286335989842
  C   6.17755903375561      3.05487601022653      1.42677476507292
  C   6.96104925903484      4.28739239874510      1.38590913889144
  C   7.60622813178109      5.29763114097115      1.33580425929896
  C   7.17406938820280      1.92340584330704     -0.61898454753920
  C   7.31628080945050      0.47678056042394     -0.03825088423089
  C   5.87584198801986      0.09365894400044      0.22411445168081
  C   5.10941272298339      1.21203467617405      0.16245176845048
  C   5.18764348944327     -1.15612995072534      0.22365194196004
  O   5.64134446332688     -2.27483994854542      0.18170784387447
  O   3.78211912639163     -1.05289696246635      0.28754986509928
  H   4.82996380606516      4.39711278418453     -0.38773855349851
  H   5.03873451595579      3.35546336243105     -1.79566926894896
  H   6.71425089043191      2.30750311894347      2.01741715226217
  H   5.22924514370283      3.24633300791614      1.93561967158009
  H   8.17425123522377      6.19485538276148      1.29227876743863
  H   8.04857558933876      2.54973396496508     -0.43074923690654
  H   7.02890601319585      1.85361695128669     -1.69927448268935
  H   7.93158754378675      0.47774813878317      0.86908479259001
  H   7.80410015128423     -0.19633413152386     -0.74512634645717
