29
Coordinates from ORCA-job 9795optt
  Br  1.08600194768602     -0.04264351607145     -1.26598472415767
  C   3.04661059333581     -0.00851809173093      0.18830300143930
  C   3.69728365197133     -1.20423558067584      0.23905376262148
  C   2.94446600988094     -2.50365971728603      0.11684188298802
  O   3.71649263541459     -3.62686167397900      0.53564956770596
  C   4.98740497908167     -3.62594864531223     -0.05854026241428
  C   5.83289073610360     -2.49179187735075      0.50413769129922
  C   7.24399197437404     -2.45311049073437     -0.05827586997398
  C   7.98112930120270     -1.23830345750340      0.52011587229566
  C   7.31626501901766      0.06575709034477      0.10422295089970
  C   5.81328493464950     -0.00921159513038      0.15032859715795
  C   5.08222693745770      1.23010611325171     -0.01504579065543
  N   5.53068411713692      2.40506854742157     -0.23385684684640
  O   3.71241731261577      1.14261323972376      0.13019276234509
  C   5.11746460506057     -1.17645797391374      0.28963361582429
  C   9.43576584197761     -1.32450519034268      0.15264648541277
  O   10.05675954297230     -0.51976482342830     -0.48561485104132
  H   2.63814667933821     -2.65203438862640     -0.92711397321714
  H   2.04125064464347     -2.49576822124264      0.72306054628406
  H   4.90171661116172     -3.52084719240950     -1.15110019709961
  H   5.44818249968336     -4.59290819215853      0.15798019265427
  H   5.89600976436326     -2.66289476174124      1.58618236628106
  H   7.20970890270871     -2.36430404547234     -1.14935890015615
  H   7.77615171122974     -3.37887783023066      0.18351438813235
  H   7.94538774529656     -1.34367207863598      1.61349831180793
  H   7.65182684141700      0.32851801301408     -0.90639742745751
  H   7.67578723486093      0.87374180011984      0.75027336271511
  H   6.54162948518405      2.37797787017954     -0.31429487570249
  H   9.93706174017408     -2.24946333007884      0.51194836085776
