28
Coordinates from ORCA-job 9797optt
  Br  1.10225098394266     -0.33061341293019     -0.45845081773285
  C   2.93106211767393      0.10743446176549     -0.29312410314430
  C   3.35652634474702      1.44750721556990     -0.29572046753381
  C   2.77930801405751      2.75057722765418     -0.05244177488154
  O   1.60622703861042      3.10908098471255      0.01319934331613
  C   3.94945840518488      3.73792362581986      0.29168621644099
  C   5.24257518940504      3.00690622936402     -0.10246051148960
  C   6.43835657922726      2.77430800530771      0.84615513823128
  C   6.93105417082803      1.31612983279586      0.52070023637263
  C   5.64829177236375      0.66936588410818      0.06672452533571
  N   5.20102156134817     -0.64082885165091      0.18371419541689
  C   3.85326455933286     -0.99225036268944     -0.12852643349690
  N   3.50050313636323     -2.23599501843803     -0.20234625225422
  C   4.75861696271733      1.61072994409751     -0.23312628704183
  N   7.46535710691587      3.79555310125183      0.77717611397113
  C   8.24538284130681      4.16162727082723      1.82672139618958
  N   9.27397981985681      4.91550602474529      1.84659611140227
  H   3.89949992497267      3.92093508876843      1.37079505931820
  H   3.80279175454233      4.69621698184154     -0.20758715942012
  H   5.61785276631363      3.39328438182949     -1.06080430998761
  H   6.05843454914678      2.76833845133373      1.87095377042293
  H   7.36957139866573      0.84217489305437      1.40380318454034
  H   7.71140516866400      1.34809364165394     -0.25077013526759
  H   5.85757059869225     -1.40069529752253      0.11288701394134
  H   4.29364045509695     -2.84285429747956     -0.00677152992448
  H   7.75643244906459      4.08764570104490     -0.14424858585970
  H   7.89202476631014      3.74784976343724      2.77282210155873
  H   9.51053956464923      5.23804852972737      0.90744396157635
