29
Coordinates from ORCA-job 9798optt
  Br  1.12186216881177     -0.05957361259368     -0.36214037624983
  C   3.00049328916021      0.14630678366780     -0.14947221623299
  C   3.59291810481806      1.43321770396639     -0.05822388159150
  C   3.08298460674790      2.76278064051191     -0.05411601114657
  O   1.92268457801933      3.18059747789970     -0.18147887048873
  C   4.27267581873872      3.70268744265827      0.20492735601456
  C   5.54944074171705      2.83707628799481      0.13992845073539
  C   6.49778832442248      3.07301921066310      1.31730903754743
  C   7.02846008607615      4.50448831939863      1.30893381746347
  C   7.61500597436917      4.92246062411882     -0.02164776457897
  N   8.57538454829614      5.75601276496006     -0.17215219650345
  N   6.98493671678372      4.41451726850780     -1.12351129964002
  C   6.33496085328525      3.10638632935531     -1.14404816426721
  C   5.00804890340543      1.41786879723867      0.09624045778221
  C   5.70411492369179      0.24499691927296      0.14844673895480
  N   5.12134637840870     -0.98276411333714      0.06848306418824
  C   3.78699826705283     -0.98138974396477     -0.07948200950217
  H   4.13883084034026      4.15164848107662      1.19609202164887
  H   4.28135075937506      4.52457455695415     -0.51500788538739
  H   7.33223283134298      2.36791131037450      1.25483992969419
  H   5.97464261906385      2.86922757328571      2.25355737085196
  H   7.78299643052501      4.65525480715329      2.08190748732166
  H   6.20401424781369      5.19335527314373      1.51686565880431
  H   8.88411453437102      6.09450859948736      0.73420874408685
  H   7.42666146021676      4.70570373557962     -1.98370032271539
  H   7.07577011889889      2.30907050573274     -1.27894348703688
  H   5.65160610087887      3.07283060219638     -1.99472031840960
  H   6.78581868939339      0.24371338761564      0.26065241601941
  H   3.30985708397542     -1.95448793291843     -0.14874774736264
