29
Coordinates from ORCA-job 9800optt
  Br  1.26950890403038      0.40070989302976     -0.10115903529971
  C   3.12969479466136      0.19101094286115      0.15231971732362
  C   3.72223931775685     -1.06785540915598      0.20748947579423
  C   3.18874003449884     -2.44659405869749      0.01227621415331
  O   4.29718038813315     -3.30898578582087      0.28586379298135
  C   5.52021912553518     -2.57516810029356      0.35264052208733
  C   6.46693394888579     -2.84830720109263     -0.82449973227730
  C   6.88137382449100     -4.32039672575951     -0.93303734309422
  C   5.79492962133458     -5.16747251589271     -1.59667169957751
  C   5.35533666677627     -4.51353419680783     -2.89813103813178
  O   4.91122648335303     -3.19185834812375     -2.69749068511392
  C   5.93388376512761     -2.36517110695871     -2.17131734489741
  C   5.08326544697980     -1.13747670348471      0.41956219489722
  N   5.92522316763172     -0.13923587782447      0.56620678662147
  O   5.29563040836588      1.13141655190358      0.53168138199418
  C   3.93282393074882      1.34710006215744      0.33364952842179
  O   3.58073003612411      2.51024428526965      0.33699637500434
  H   2.83703648514293     -2.61431287144349     -1.01343442610646
  H   2.37587836694524     -2.69689387290355      0.70147140645650
  H   6.03867129091213     -2.88460279666109      1.26873960999224
  H   7.35124980315772     -2.24100024468582     -0.60332494380749
  H   7.12559531443452     -4.71419704346303      0.05722487974252
  H   7.79412997745147     -4.38366138742111     -1.53704238029674
  H   4.93235295313323     -5.24499078259176     -0.93599114629353
  H   6.16701825375702     -6.17478093703219     -1.80532493334145
  H   4.52526784603956     -5.05387158081740     -3.35503636344074
  H   6.19548279685097     -4.50977125695519     -3.61305058427793
  H   5.51383219431478     -1.36381373917902     -2.08544039723177
  H   6.76754485342599     -2.33352919215568     -2.89016983228212
