28
Coordinates from ORCA-job 9801optt
  Br  1.06845700014462     -0.11654583135481      0.20778708654307
  C   2.95760299272832     -0.00823901002445      0.09835703970240
  C   3.58775591213761      1.24420804626197      0.14479173334292
  C   3.00907085641317      2.60473819271493      0.34283018850794
  O   4.12434470758530      3.50493273134859      0.23794554172118
  C   5.34761312027624      2.78453924654712      0.21035442774797
  C   6.16786888739324      3.10450683806180      1.45371228759725
  C   6.50852856687996      4.58999918274490      1.60427227374109
  C   6.54955023389668      4.76719104771206      3.11410305356829
  C   5.61910339856268      3.67401501789839      3.61271342650036
  O   5.13020428895395      3.58177701046213      4.70084549965988
  O   5.42679485018662      2.77367113794287      2.64063417690377
  C   4.96456900257604      1.34600288982127      0.06943066616499
  C   5.75643024563269      0.22921132706629     -0.07472259067150
  N   5.09347649203895     -1.00714192453337     -0.24249023911273
  C   3.70157997537075     -1.20650869486473     -0.07876713242279
  N   3.18497918841498     -2.39920418667908     -0.11581021396891
  H   2.53917784335446      2.72579405767270      1.32685097979714
  H   2.27367639382256      2.87957920881693     -0.42063074107337
  H   5.94764280369506      3.14525219047821     -0.64083695674683
  H   7.06844175066323      2.48079963952174      1.44630545524083
  H   5.69825716746024      5.17648687906271      1.16981476197578
  H   7.43992850975305      4.84369524003202      1.10098206323740
  H   6.22086704764434      5.73417881456147      3.48655953290105
  H   7.53933079365342      4.56079225163531      3.52956854518190
  H   6.82589561830614      0.23013875259575     -0.22596359133924
  H   5.63369478632092     -1.83797404561163     -0.06700833685725
  H   3.91415756613461     -3.08689600989115     -0.29262893784262
