30
Coordinates from ORCA-job 9803opt
  Br  0.93075334648415      0.13906522418139     -0.04677684716244
  C   2.83369013566409     -0.08964448020937     -0.02812923823093
  C   3.63389448866973      1.01306022135486      0.00081057646840
  C   3.09300217587471      2.41726861666056      0.03725306150386
  O   4.05508613568685      3.35984165656403      0.47282783823263
  C   5.24032059365963      3.26243736516908     -0.28143148080957
  C   6.00440913202150      1.97608847365886      0.04182120111266
  C   6.70047559883027      2.13015621901560      1.41272958100221
  C   7.92004424721614      3.00963948009773      1.12348308535256
  N   8.17499013698709      2.87226709434011     -0.32600693940829
  C   7.22581862704097      1.89618641389405     -0.88340320469948
  C   5.05314210849547      0.81070606292516     -0.04473973311498
  C   5.48180531055208     -0.52512746595037      0.00793584568660
  N   4.72777378551626     -1.59466284659038      0.00490526526403
  C   3.34805038158054     -1.42227877040698     -0.06293968646178
  C   2.53429197285513     -2.55968162524790     -0.11613501431866
  C   1.83692015865606     -3.55536451431594     -0.15292773697855
  H   2.25081768372381      2.49361471089833      0.72243719037277
  H   2.73584643660576      2.70923219605915     -0.96369647876827
  H   5.84092451495516      4.14378953635215     -0.04987657173543
  H   4.99796336371190      3.27834057543173     -1.35446155957565
  H   7.00622923607995      1.14099267233348      1.75837834262787
  H   6.02329533992875      2.55628113014705      2.15340119234359
  H   8.78790800572968      2.70922356660171      1.71669388265395
  H   7.71600870231729      4.05819615448831      1.36078810772304
  H   9.13080517496897      2.60822282806786     -0.51160611794820
  H   7.62289525449143      0.87675940549633     -0.88266122565732
  H   6.96157306214300      2.15153087809302     -1.91251897634928
  H   6.55285912626417     -0.72651197830654      0.06258090693166
  H   1.22340576328876     -4.42062880080322     -0.19073526605700
