25
Coordinates from ORCA-job 9806opt
  Br  1.27910279928764      0.09523303787724      1.54453631279734
  C   2.77162830695174     -0.04326292083430      0.31777934605318
  C   3.49145791035987      1.10496171389159     -0.05671088999494
  C   3.16631066283605      2.50219725448859     -0.15976256679491
  O   2.09230014759868      3.07820483144041     -0.04555615117562
  C   4.49643941833409      3.27262387186497     -0.36430566473102
  C   5.51230579348490      2.20500914430587     -0.77201857666131
  C   6.94107242970498      2.21336828296662     -0.21581540573714
  C   7.57569331240696      0.84811839267991     -0.57016815894594
  O   6.93775103489608     -0.24649580870960      0.04816609028735
  C   5.55449152128799     -0.17506233007264      0.04228821861004
  C   4.87512703322651      0.93978974125005     -0.28234838583175
  C   4.83767709412398     -1.32403193415064      0.54876632827050
  N   5.32624786511421     -2.42586693721278      0.95678841724969
  O   3.47028211246118     -1.21523073369039      0.55076089610838
  C   7.75710148894934      3.29451075395060     -0.75593375891319
  C   8.42302340364414      4.16892089504036     -1.23610621437345
  H   4.76465663255882      3.73146485426583      0.59268225898451
  H   4.37300367615796      4.07324868655670     -1.09364042424238
  H   5.58824323970692      2.17769284716532     -1.86409018353087
  H   6.89752560940552      2.30345404279695      0.87464692778088
  H   8.61701213589360      0.81688345201499     -0.25305531259620
  H   7.53564468963506      0.73445321571024     -1.66117547122321
  H   6.33798703029380     -2.36950366095882      0.86751127296013
  H   9.00491465167894      4.95331930736266     -1.65523890435006
