21
Coordinates from ORCA-job 9809optt
  Br  1.16748645155371     -0.23857048205275     -0.05230846170109
  C   3.04274357461174     -0.06554194315965     -0.05201336446323
  C   3.66657297156064      1.18266998296421     -0.05114700753263
  C   3.27375210116225      2.57536882131801     -0.05016974195486
  O   2.15639153171989      3.07807523829088     -0.04978712749861
  C   4.58183026498665      3.42046721440511     -0.04956401877253
  C   5.68323054795311      2.40247477375755     -0.05036300489320
  C   7.08095022616868      2.43175975042046     -0.05034229724534
  C   7.87389751337904      3.65849438134269     -0.04943864689910
  O   7.42973161199214      4.78233136709563     -0.04853326068271
  C   7.75223683091481      1.20259986051534     -0.05117441476578
  N   7.17119456995293      0.00045335812825     -0.05194290099721
  C   5.84865980725797     -0.00877549772090     -0.05193828746607
  O   5.21760412777522     -1.19156051341547     -0.05265392008270
  C   3.78500563837152     -1.28710887625090     -0.05282503246012
  O   3.36654155096072     -2.41684931026573     -0.05372466159079
  C   5.08882131770286      1.15681451864018     -0.05118900204118
  H   4.61560612925720      4.07240584992444      0.82584487729979
  H   4.61555857813258      4.07383020087233     -0.92390751054019
  H   8.97120645360395      3.49440282673364     -0.04963318053502
  H   8.83897820098234      1.20125847845667     -0.05118903517745
