29
Coordinates from ORCA-job 9813optt
  Br  -4.15045948994904     -1.39991338047032     -5.90370444266526
  C   -5.33016840919957     -0.79749441707784     -4.51724614762959
  C   -6.34679205022186      0.09532656989237     -4.90202139083667
  C   -5.98355770147231      1.23457586722756     -5.79847317931950
  O   -4.77205104771272      1.95935695716275     -5.42790659654161
  C   -4.56341142173117      2.24598805263937     -4.06794797805264
  C   -3.11584403523897      1.95272916598861     -3.67475059355304
  C   -2.87871203583392      2.12380059136448     -2.16468888882291
  N   -3.11958759256229      0.77597466970559     -1.62512856314709
  C   -3.13945892392005      0.00174194613546     -2.62868942880053
  C   -3.69868688768264     -1.39553626748793     -2.68863570148393
  C   -5.10761090394167     -1.11445957303955     -3.18485148480758
  C   -6.06621923987255     -0.75490122459510     -2.22383770181193
  C   -7.27453862406777     -0.08129129461182     -2.58860598012616
  N   -8.30250159031969      0.21645140868720     -1.84634901317862
  N   -7.31415093831508      0.35355969396298     -3.90383942957870
  O   -2.85682890223122      0.55434586979572     -3.84242742900648
  H   -6.81960840751451      1.94279694048096     -5.83589733760192
  H   -5.75573458957790      0.90529852905615     -6.81131688393682
  H   -5.22109309788368      1.66009722140681     -3.41724714191128
  H   -4.75959522185691      3.30987893347604     -3.86748274933115
  H   -2.42240453294875      2.49822478836773     -4.31360417409616
  H   -3.57937537421825      2.83072771121010     -1.71572166902576
  H   -1.86220894989719      2.45348332304574     -1.93058730595937
  H   -3.70317124019914     -1.82518532314972     -1.68852019599503
  H   -3.12198039141582     -2.01573926387164     -3.37238968010582
  H   -5.85800747903225     -0.89796360730669     -1.17224327030482
  H   -8.15170771812570     -0.16146842913490     -0.91591241846442
  H   -8.18153320305726      0.79659454113986     -4.16397322390514
