29
Coordinates from ORCA-job 9814optt
  Br  8.70323364704324     10.34218878876682     -6.84050202479247
  C   6.89116796141497      9.75115833453227     -6.93807314918046
  C   5.92908996942187     10.12033696070884     -5.92474351202009
  C   6.44728207200479     10.97259270309111     -4.78782353965099
  O   7.39516899828631     10.36344060943296     -3.81805727923070
  C   7.02445497742192      9.49905549849679     -2.75687753024474
  C   5.79171197941113      8.74268779872827     -3.18235645965701
  C   4.98513602768361      7.50497552633747     -2.74309727356351
  N   3.81794286136758      7.66840318279266     -3.67949271268857
  C   3.78355842478461      8.91369728880695     -3.95161467119050
  C   3.36208571024203      9.63207863335426     -5.19244277783830
  C   4.59250921594326      9.59738249484824     -6.13435094545827
  C   4.32921490397393      8.87641851645884     -7.26556641416189
  N   5.26970512470835      8.67237850586176     -8.25872319343855
  C   6.62939022038982      8.99773676446705     -8.10139433472805
  O   7.41494647869203      8.61371944012181     -8.97758233627788
  N   4.69550643743176      9.72248188756731     -3.20677483292776
  H   5.64488611188960     11.46676288910859     -4.25430122430763
  H   7.10330518772368     11.72913456839137     -5.21360473318838
  H   6.83858749938903     10.06966214166648     -1.83444089811805
  H   7.88046920589987      8.84122030706558     -2.58617189556204
  H   6.01308782449550      8.51769735843934     -4.22848190983541
  H   4.66475878744093      7.53777886419283     -1.69452090045931
  H   5.45619432273661      6.54430784231329     -2.94415230712986
  H   3.08172465884753     10.65511036842138     -4.93410424444413
  H   2.53336497366102      9.14080705141230     -5.69707761154811
  H   3.35676915634500      8.44468584871071     -7.45284311122282
  H   5.09636951461884      8.00574260449868     -8.99218156255146
  H   4.35537774673102      9.83435722140586     -2.25064661458294
