22
Coordinates from ORCA-job 9815optt
  Br  0.92532868488301     -0.06712660755237     -0.01389801107477
  C   2.81759388160603      0.00163452763940     -0.02009665556100
  C   3.51338258750306      1.22906233823252     -0.01951389250619
  C   3.13131153855611      2.61887778646290     -0.01693175174809
  O   2.01226156889943      3.12931210933530     -0.01470763957212
  C   4.43852460675442      3.45734103875000     -0.01773949149178
  C   5.53831759684772      2.43282010936688     -0.02089066798822
  C   6.91362152352043      2.48769214621361     -0.02262294121578
  N   7.69372998978227      1.38980027981543     -0.02544883139248
  C   7.10388198088490      0.19485244883540     -0.02661084739711
  C   5.71811985984295      0.00549389036608     -0.02498472453056
  C   4.95969777947937     -1.21718083771812     -0.02613683550021
  C   3.55404319510283     -1.19978500340607     -0.02375595952493
  C   3.08131003163915     -2.55584312249281     -0.02573137822142
  N   3.97635211846130     -3.50116570828468     -0.02917207817335
  S   5.49895472797883     -2.84760491548696     -0.03101030728743
  C   4.93605970915293      1.16765384876544     -0.02193278135006
  H   4.45452202284823      4.10264157599560      0.86383962017311
  H   4.45189643109651      4.10506862835498     -0.89759671600947
  H   7.44062521590904      3.43783609528006     -0.02180496127666
  H   7.76688411246304     -0.66705663015199     -0.02880394596499
  H   2.03158083678842     -2.82232399832059     -0.02444920238651
