27
Coordinates from ORCA-job 9817optt
  Br  2.89364468188573     -1.03710365678015     -2.09338937035223
  C   3.33594765910762     -0.01758073108482     -0.52331267448288
  C   3.11458734103419      1.30707231938863     -0.41114487361642
  C   2.53939562182990      2.18143756519119     -1.47204671950647
  O   1.13097724782036      2.40410375624538     -1.29349775086808
  C   0.73484400453375      3.57873940306993     -0.62497750762021
  C   -0.07921567117390      3.27966233114185      0.63582863831065
  C   -1.18768338733501      2.22472206670870      0.42085746015731
  N   -0.63860299819909      0.98945956422336      0.98275460491669
  C   0.63182008865461      1.26434453073832      1.51004167064029
  N   0.70612652004217      2.64470005862225      1.67492260852956
  N   1.51639950779554      0.37389000176183      1.73567884803283
  C   2.82622708909089      0.84999946119683      1.93672031156675
  C   3.88941598158270     -0.05421158533130      1.67700403411250
  O   3.80842359688244     -0.80380682320598      0.43834157514586
  C   3.29121248772494      1.89079156999440      0.96419819350775
  O   3.72242083358116      3.03796966769870      1.13366451611853
  H   2.64809059165290      1.73192509133272     -2.45804594289839
  H   3.05753483907455      3.14481270342368     -1.45950666255679
  H   0.11075033328072      4.17509615439416     -1.30583456369132
  H   1.60830649981984      4.17717317499269     -0.34405394697445
  H   -0.50137159300768      4.22510098742323      0.98927825840214
  H   -1.42000073948616      2.10733434375923     -0.63836275287795
  H   -2.09800699631179      2.51369931893534      0.95097149328978
  H   -0.59557222149759      0.20498577178058      0.35003559125603
  H   1.62543695248550      3.02369158765757      1.86655986357898
  H   4.92289172913166      0.20699136672162      1.86731509787954
