23
Coordinates from ORCA-job 9820optt
  Br  1.31416260003802     -0.02057775914179     -0.87476086011936
  C   3.15247694924248      0.20306576963210     -0.51504629070723
  C   3.74822717433352      1.47287679232797     -0.57791201549109
  C   3.29491503152871      2.81755072325752     -0.32554323765992
  O   2.16897513125402      3.30317874239911     -0.33017043845104
  C   4.51593063774311      3.64856501774221      0.20542566604157
  C   5.77416698407544      2.79835472912574     -0.10942572486877
  C   6.50548318361421      3.37804978776011     -1.24405783298783
  N   7.07750558621495      3.86945576351262     -2.10899910191907
  C   6.82718976380185      2.40217941852747      0.96917775212329
  N   7.53206060346147      3.11974794393819      1.73318352000465
  N   6.92010653901918      1.01032532536125      0.92088173053785
  C   5.81107780076124      0.48819133294250      0.21849731635225
  N   5.20688910399764     -0.73039251633561      0.43471341843230
  C   3.88704128876267     -0.96572300341409     -0.11442195961461
  N   3.41800831421485     -2.16794667218150     -0.14730819936461
  C   5.16130772835492      1.46631766256632     -0.40414436746353
  H   4.38486494173433      3.74993095499699      1.28618241324774
  H   4.54978932843523      4.64613616715868     -0.23054154848333
  H   7.31413819304937      4.10321760892808      1.59380185163419
  H   7.38534524155167      0.52013273563235      1.66671811350436
  H   5.78537018829413     -1.55827442421134      0.43638048102689
  H   4.07496768651683     -2.82536210052491      0.26636931422529
