23
Coordinates from ORCA-job 9821optt
  Br  1.10550871149948      0.43144838014364     -0.22689662470401
  C   2.99276960903048      0.19843579022645      0.00003954171861
  C   3.57738132588925     -1.02439722023282      0.13815696021120
  C   2.77336276474140     -2.30366304029437      0.13012190612549
  O   3.11941558929663     -3.20094824250078     -0.92016429294364
  C   4.01132572413443     -4.21499273947164     -0.54238397549855
  C   5.25030730810930     -3.65434602924412      0.04815765400908
  C   5.62003486137035     -2.39772830352417      0.37887016360058
  N   6.94736931964637     -2.51283363560847      0.80483560680375
  C   7.37073519907326     -3.80607464424281      0.73443741879423
  N   8.47237212067569     -4.38298773726950      1.00429537658097
  O   6.30453752305049     -4.52533612892103      0.27597228045153
  C   4.98194871613280     -1.11161298496116      0.37247664730052
  N   5.84534071980832     -0.09040970344715      0.63790325234268
  C   5.54636030379305      1.18743480329048      0.60195619830159
  O   6.24535222763370      2.14883676556817      0.86004994357080
  S   3.83156048221225      1.71450963730023      0.05309948824077
  H   1.71981685939928     -2.07682913748715      0.00064261833647
  H   2.90062874768175     -2.81222855098954      1.09340155912191
  H   4.24896000197430     -4.77751106315288     -1.44928312713870
  H   3.53079605203642     -4.91626406477775      0.15925200795172
  H   7.48422107853235     -1.69477098504878      1.04503541675805
  H   9.14889475427857     -3.70273116535486      1.33302398006492
