31
Coordinates from ORCA-job 9827opt
  Br  1.80641951311972     -0.12964292876898     -0.69376281784095
  C   3.59280510002849      0.36855090738567     -0.24792674620643
  C   3.91615754574968      1.72690818109055      0.03315268037889
  C   3.14457852267660      2.92515433193292      0.03241074322473
  O   1.93018153017712      3.10841762906169     -0.16733843461328
  C   4.11914844753256      4.08635117368483      0.26488603360479
  C   5.43822319221395      3.46101131053329      0.74072884300872
  C   5.49304660855702      3.48448083101284      2.27930962437225
  O   5.71921126475668      4.77152984676584      2.83305531593167
  C   7.07029490144319      5.04102413066950      3.11653990491992
  C   7.92256161111796      5.30830704882301      1.88512083274698
  C   7.84308629579733      4.20884422139846      0.82005486308306
  N   6.57798941978846      4.14175267213254      0.11100738918209
  C   5.28397625387094      1.99446104831266      0.34942999135049
  C   6.24292374022228      1.02051425900224      0.36816575792781
  C   5.89267463570104     -0.31769134119568      0.06396095119101
  C   4.55949015030074     -0.61392395331386     -0.23297939080001
  H   3.71960067241643      4.81345165625529      0.97534780353912
  H   4.26923705263943      4.60142198100347     -0.69212134973210
  H   6.26261164815933      2.78986183337886      2.63575513922520
  H   4.53005451981716      3.12863436533339      2.65160117261232
  H   7.50150572927920      4.19959307315253      3.67838882869537
  H   7.07673930961263      5.91466793591683      3.77235554414431
  H   7.60832291252709      6.25180235405213      1.42722093486459
  H   8.96119445295172      5.43733005144338      2.21112617171358
  H   8.05005954445396      3.23546527553815      1.27106498676365
  H   8.63682471231942      4.37767101744526      0.08586968377850
  H   6.29157996193062      5.07564501389680     -0.15386303004043
  H   7.27235758670962      1.26536869338847      0.60749798458924
  H   6.63605755111398     -1.10314789022197      0.06438997633891
  H   4.27208561301513     -1.63281472911044     -0.46344938795412
