22
Coordinates from ORCA-job 9828optt
  Br  1.19681819263074      0.45507917165716     -0.66783732585549
  C   3.01454941157575      0.13260926886651     -0.22963176848533
  C   3.55675550443752     -1.16889492573170     -0.03781467571799
  C   4.97310271419452     -1.16544353973427      0.18768195543663
  O   5.64369294176321     -2.32072447012002      0.44479238357373
  C   5.15216561265005     -3.43879150060710     -0.28266643828072
  C   3.69377486409065     -3.60712367950734     -0.04038177961118
  C   3.08684274636777     -4.79011990180591      0.07322379444039
  O   1.74783724637659     -4.90670336044125      0.19820018769318
  C   0.94794109019079     -3.72531804766359      0.14940444525878
  N   -0.31531404194543     -3.91353863620629      0.18987675462597
  N   1.53977696889271     -2.52161809632626      0.08568845101354
  C   2.87048348457704     -2.41986933290773     -0.00066244683352
  C   5.66312245717049      0.02472397433577      0.21377860253389
  Br  7.55466935767806     -0.02676978238152      0.51102371704161
  N   5.13046763134718      1.22550274712688      0.06553908651788
  C   3.81432990967681      1.25338529063282     -0.15921142413309
  H   5.72697994327237     -4.30249539443262      0.05045535822632
  H   5.35478415554379     -3.26939536622377     -1.34788592906499
  H   3.59452034962949     -5.74724662731256      0.06229533645360
  H   -0.49655280634301     -4.91191646798993      0.24273551108023
  H   3.37025226622288      2.23066867677272     -0.30560379591346
