24
Coordinates from ORCA-job 9829opt
  Br  0.97549635763570      0.20635664414819     -1.13381872956548
  C   2.98642984269028      0.24744150092214      0.08030151577522
  C   3.59562040131020     -0.97471462146745      0.28550373636042
  C   3.06312572360292     -2.32529701392986      0.62245743390975
  O   4.22392680307432     -3.18028038034940      0.63158444144981
  C   5.41490490696728     -2.44417209158510      0.40414564610344
  C   6.31452775304652     -2.49592920947355      1.58738829583937
  C   6.79251240644707     -1.56589703691680      2.39610743813530
  O   7.60235254468719     -2.17047171980716      3.34308667221495
  C   7.60148528519929     -3.50376342547372      3.06879528122109
  N   8.21262726246429     -4.41330079621747      3.68308680509226
  O   6.81916814819591     -3.72306674859777      1.99251695966402
  C   4.97119206713581     -1.02375552416783      0.12672365456027
  N   5.79158338381233     -0.05279583010274     -0.19379289005943
  C   5.20731531564441      1.17549721526928     -0.41732075879617
  N   5.81484068444421      2.25945417990967     -0.74039769348708
  N   3.80787913509523      1.25327625354304     -0.25753608744740
  H   2.35754799875094     -2.69707765744981     -0.12477761007744
  H   2.58444187619365     -2.37314717568617      1.60462921345686
  H   5.93938484922233     -2.87023606573736     -0.45832245481427
  H   6.68781402645817     -0.49753829677937      2.41126114961912
  H   8.73562069585383     -4.01472640804171      4.45549635908205
  H   6.80567551763834      2.05135597757014     -0.82003045793259
  H   3.41952701442915      2.16678823042095     -0.44708792030413
