26
Coordinates from ORCA-job 9830optt
  Br  0.70355576177930      0.42076002914440      1.43121693400144
  C   3.10979680085016     -0.06316724196064      0.65005867030826
  C   3.79412700252177     -1.20094000784771      0.36915008660268
  C   3.34177351339167     -2.58020774944375      0.73492145604022
  O   4.39143818453455     -3.31913146557337      1.36901529933884
  C   5.65188080996829     -3.29811192865903      0.72611271351354
  C   5.67320175395302     -2.45265067015934     -0.55134425813621
  C   7.04175013768718     -2.37938980043322     -1.18556447180856
  O   7.96862081674869     -1.61452781623591     -0.41992248409859
  C   8.09778750706202     -0.29650753661747     -0.71794070948684
  O   9.18599552031102      0.21684383762418     -0.73349265390483
  N   6.93774927139075      0.36457921485733     -1.00660062789157
  C   5.64391979283256      0.10219394013525     -0.49760506934594
  C   4.90493198452419      1.32283209881664     -0.23527889875534
  O   5.34428169144484      2.44890384672481     -0.48254653253612
  N   3.65516996261423      1.12366650052011      0.31052228119246
  C   5.06859659438515     -1.11182684922644     -0.25545992694715
  H   2.99593425959814     -3.13992795804723     -0.14516705252313
  H   2.52059154638811     -2.52557636371928      1.44564939779107
  H   5.93661786529127     -4.32774519959966      0.47652771392841
  H   6.39287012237984     -2.89986122598211      1.42592465092075
  H   5.01687297818340     -2.94782460748323     -1.27849242600118
  H   6.96462222295688     -1.95420771091444     -2.18854043557313
  H   7.48128746383694     -3.37520961572365     -1.26650394234138
  H   7.07101738455562      1.36144341721982     -1.14896945878927
  H   3.11260905081016      1.95959086258401      0.49932974450159
