22
Coordinates from ORCA-job 9831optt
  Br  1.18353653302833     -0.01292674646566     -0.41164820909519
  C   3.06135810027809     -0.09678001725916     -0.27873384136745
  C   3.72877743850020     -1.31360574145456     -0.11104846526649
  C   3.39227566036451     -2.64600032360628      0.31419018211563
  O   2.29943349146513     -3.18161686033692      0.48630617717277
  C   4.71700766976043     -3.36993120123734      0.70430093532250
  C   5.84728760793386     -2.50231272331246      0.12242870990095
  C   6.36822852690660     -3.17786301377879     -1.14502013960538
  O   6.31123907150311     -2.73142296000782     -2.25302342507109
  N   7.05690847225454     -2.29739807926138      0.93915134032223
  C   7.56695248220985     -1.14343349934954      0.92664459323615
  O   7.10065775848241      0.00211569519359      0.34447941251589
  C   5.77808201307288     -0.06406380996032     -0.01764924774884
  O   5.17324107263318      1.13015913084654     -0.09888031799894
  C   3.76232622668017      1.15395587865234     -0.34181931668065
  N   3.25044811494432      2.30441058074831     -0.54734641810858
  C   5.15224186901857     -1.21811890180424     -0.10592032102417
  H   4.72127778615275     -4.40282592092304      0.34790991265890
  H   4.78588233977607     -3.39419340188014      1.79544824025257
  H   6.84130431540710     -4.16177954742790     -0.94614269893308
  H   8.50124433812499     -0.93924852731804      1.43814467740608
  H   3.97828911150280      3.01187998994285     -0.50177178000380
