24
Coordinates from ORCA-job 9840optt
  Br  1.07471333488851     -0.09895800635421      0.72995039209661
  C   2.96108584733658     -0.00523844818260      0.37471341411889
  C   3.63245240095322     -1.12550848815183      0.09380061006761
  C   3.15487357578361     -2.54055593658064     -0.09531155101685
  O   4.13636851201763     -3.49010722872659      0.28292120238928
  C   5.35588017629126     -3.33732790442617     -0.44194764629741
  C   5.90617728314294     -1.98171296972019     -0.17698232959223
  N   7.10083309876594     -1.55125302626296      0.08754297011897
  N   7.03338253929616     -0.21860524112106      0.41721613855015
  C   5.73014050254722      0.13700508221771      0.37565808647546
  N   4.99557912973518     -0.96928964462750     -0.06003311750447
  C   5.04869982818448      1.31504547837580      0.72648527686979
  O   5.49134081186144      2.40160992587762      1.13033349998135
  N   3.57475034128791      1.22004921908058      0.53007100476899
  C   2.92083652349355      2.43352718699919      0.14785935490575
  C   2.43911620102107      2.51094353028943     -1.27613669051562
  O   2.62218766130952      1.68938468696119     -2.13050492965904
  H   2.89109855253008     -2.69507309641443     -1.15214653843277
  H   2.27362113139502     -2.73442931661129      0.51137857021248
  H   5.15345073860599     -3.49435584862738     -1.51118007633716
  H   6.04403773507381     -4.10336546452189     -0.09289589773442
  H   3.64643138716486      3.23695179424818      0.32054230888492
  H   2.05290657289253      2.65891074658257      0.78277189399333
  H   1.84603611442139      3.42735296969649     -1.49610594634360
