21
Coordinates from ORCA-job 9843optt
  Br  1.13567638605430      0.21252890311804     -0.00172113203783
  C   3.02407791189531      0.10554704401599      0.00584897863621
  C   3.66050646976962     -1.15353071315144      0.00171659110698
  C   3.43254162154376     -2.58976103323031     -0.00512215384441
  O   2.39808941960643     -3.24151109605019     -0.00938748671876
  C   4.85843723393225     -3.31517997644484     -0.00596089250801
  C   5.83189218112703     -2.16406952481825      0.00260220133477
  N   7.09589975414827     -1.85767867660191      0.00779874485740
  O   7.14461454501050     -0.42997899375919      0.01529568504074
  C   5.86815751492682      0.04364140965786      0.01422706588300
  C   5.04824728031436     -1.01031761947791      0.00625494492537
  C   5.24853155598879      1.33428471102383      0.01938286844240
  C   3.78507582404455      1.30385312449575      0.01466954226500
  N   3.14668841957917      2.50967422714529      0.01938538492695
  C   3.87386743902178      3.60275557604248      0.02772928496545
  N   5.20567177254053      3.73025367904882      0.03210101131432
  C   5.86957958875774      2.56641969795310      0.02771631054001
  H   4.94065185892309     -3.94595973670542     -0.89178966663756
  H   4.93674437865441     -3.95624764334117      0.87279325801495
  H   3.31487322505760      4.53580418296056      0.03144275030946
  H   6.95417561910363      2.61547245811892      0.03101670918355
