26
Coordinates from ORCA-job 9848optt
  Br  1.06143413753286     -0.33753041216759      0.39777893950131
  C   2.95738998300779     -0.20594478036371      0.17082360594415
  C   3.63920490732878     -1.32658021456782     -0.24183284055251
  C   2.87358383491016     -2.61983526324674     -0.42911631271207
  O   3.65371825412255     -3.78031409120196     -0.63628401304272
  C   4.65330961870405     -3.99045583448068      0.32943004207500
  C   5.98996209408284     -3.62921735529840     -0.27608309233133
  O   6.25300601020311     -4.55979401551681     -1.35193091994484
  C   6.01518743919661     -3.85426903783759     -2.48861661871146
  N   5.82849806149977     -2.61616562123771     -2.42639632978523
  C   5.97902571559629     -2.25354486874110     -0.98535775338643
  C   5.04421848788619     -1.20674616921044     -0.46147595697408
  C   5.59029390702614      0.06847286681329     -0.22585677939036
  N   4.95327371054231      1.12957830189336      0.18109299615950
  C   3.59538314086094      1.05509785970434      0.40719766967681
  C   2.99943682951877      2.26826102108989      0.86841912917882
  O   1.81565424847745      2.50355684200040      1.16078117028199
  H   2.21671795491828     -2.54400332941175     -1.29707769821005
  H   2.23270062127522     -2.77560994450184      0.44489954970361
  H   4.64977190977950     -5.04913267709398      0.60336261440978
  H   4.47523524497995     -3.39127313114004      1.22861189552398
  H   6.79353813421204     -3.72390412372154      0.45474407201084
  H   6.01395787312503     -4.45277876524986     -3.39204682192696
  H   6.98071432320226     -1.81996503433159     -0.90933727879127
  H   6.66002545196156      0.19865482546423     -0.39535130088043
  H   3.76175810604946      3.06444295235567      0.95862203217394
