20
Coordinates from ORCA-job 9849optt
  Br  1.01212595008965     -0.01393311976169     -0.23690726083099
  C   2.88089578173261     -0.07720728746525     -0.08011603271149
  C   3.58490655271483     -1.19895546332136      0.15519564437619
  C   3.28913598633573     -2.70568885537479      0.37284894925494
  O   2.17937777547514     -3.19482258061284      0.37597263166574
  C   4.58764952086587     -3.33548852807510      0.56020056435283
  C   5.54564705778484     -2.34395334575087      0.47442948876118
  O   6.87729654723658     -2.43614140482676      0.57935235114521
  C   7.68253437962305     -1.28817135151761      0.47281101596908
  N   8.93295847901452     -1.44655502376783      0.59400541953343
  C   7.09232813377747      0.06775501460747      0.22494229659893
  N   7.84843826017250      1.13449487912108      0.13235904068490
  C   5.68535486958289      0.07720964617578      0.10809789622287
  O   4.97088761610361      1.21528812465687     -0.12972174967386
  C   3.59719078040394      1.21461446439536     -0.23774975613482
  O   3.05816698253888      2.26171035740704     -0.45548107422325
  C   4.98061739121177     -1.08375239982587      0.23936606063675
  H   4.73417754351517     -4.38759256479598      0.73229685130451
  H   9.15123067251699     -2.42668651943317      0.75529214191271
  H   8.81707971930391      0.84287595816552      0.25680552115512
