20
Coordinates from ORCA-job 9850optt
  Br  0.97582319066156      0.11116050751121     -0.50259742599688
  C   2.75895780450705     -0.16378169144531      0.05284083293777
  C   3.45086451512509     -1.37617334563587     -0.01252191988260
  C   2.76073114215779     -2.69805308464793     -0.01406205172866
  O   1.52387047861247     -2.78486180607361      0.01225968982225
  C   3.59328469625378     -3.88109963104054     -0.01936770423534
  C   4.94025931379580     -3.72256863518668      0.01471088880691
  O   5.93792428851603     -4.68704003357635      0.01259355544056
  C   7.13789391457850     -4.03805082451310     -0.00180404096116
  N   8.27761924062913     -4.56752930200393     -0.00721153799237
  O   6.94937121987617     -2.70352878391834     -0.00821168520022
  C   5.57861364922886     -2.49252010889071      0.02209035939378
  C   4.87008486940537     -1.32756381900289     -0.01953407512222
  O   5.62268131714701     -0.18063361178935     -0.18972238551076
  C   5.18800159475244      1.07364562134346      0.05224629626203
  N   5.95873937430642      2.06820276166857     -0.03186604788002
  S   3.52121946060373      1.32564088353103      0.54885708409839
  H   3.10933367757461     -4.84636718070751     -0.02398157146280
  H   8.18057746898128     -5.57739780928869     -0.00183811941955
  H   6.90214878328675      1.75251989366662     -0.25488014136911
