26
Coordinates from ORCA-job 9860optt
  Br  1.25814705475022      0.00631870968005      0.11709605485894
  C   3.17056463717211     -0.01082216922333      0.02349111456904
  C   3.84744945937235     -1.22401501757330     -0.00602114379667
  C   3.10498462068450     -2.53904312916193      0.00927809162575
  O   3.92149919579329     -3.65181567725061     -0.27672268561562
  C   5.13180758769564     -3.61900037564226      0.46126641294968
  C   6.01581549061871     -2.48575018732716     -0.04268367871377
  C   5.24826655192782     -1.18550202130410     -0.02858302334675
  C   5.92454666290483      0.02529490239478     -0.04328214884788
  Br  8.19638587475160     -0.10380445514682     -1.27974483811891
  C   5.21340797285337      1.20494117105437     -0.03139160641964
  O   5.79307791761031      2.46273889618432     -0.06071559284027
  C   7.04086291251978      2.63838073058022      0.44321905532890
  N   7.58987087533171      3.76901746436389      0.49498325033559
  C   3.82283941605477      1.20639920264435      0.01135706492836
  C   5.78214997035639     -4.92598430279697      0.34476665187803
  C   6.34888900533213     -5.97748274484438      0.26151615897281
  H   2.32028007980556     -2.53971779772462     -0.74712038064317
  H   2.61757339039964     -2.67518214149551      0.98648906630867
  H   4.89610968009562     -3.44935359605878      1.52282291090920
  H   6.35291139121281     -2.70812397063313     -1.05752823814009
  H   6.91302519260307     -2.38909344355207      0.56856800175848
  H   7.51950574989193      1.73315523335446      0.80292417999939
  H   6.97676670988237      4.47129703410640      0.07897647253154
  H   3.27729873572809      2.14011248602702      0.04155388789647
  H   6.85196386465122     -6.90996480065491      0.17748496163191
