27
Coordinates from ORCA-job 9863optt
  Br  1.09161431739617      0.16294700258841     -0.03675813035265
  C   3.01859794549120      0.13381077449268     -0.00803212643820
  C   3.66275275724817     -1.11692489283578     -0.00882356193323
  C   2.90809546653998     -2.41739564731002      0.06195921166103
  O   3.72163106502505     -3.55458401664526     -0.16588925248567
  C   4.91818404284163     -3.50253014215849      0.57933104804523
  C   5.81386921543275     -2.39952707704443      0.04664651337208
  C   5.07505397003486     -1.08127028752850      0.03895525468991
  C   5.76639260320534      0.10649451378980      0.07104209126688
  C   5.09201544341001      1.36600079810285      0.05244918862582
  C   3.66282103757030      1.33568751511304      0.01311453454448
  C   5.74077281503052      2.61776578747378      0.07665352757176
  O   5.24831061190839      3.74865048748278      0.06591003526559
  O   7.15808255961353      2.49524899402236      0.09885803351241
  C   7.83343052829626      3.70961478120414      0.15902546788949
  C   8.04294734635715      4.18508932015044      1.54586718349519
  N   8.25744986881178      4.56584587117206      2.60562828543490
  H   2.11703539713140     -2.45891417599444     -0.68791379907769
  H   2.42106735121678     -2.52541353901903      1.04680998684145
  H   5.38694034576226     -4.48357652864480      0.48537625423692
  H   4.68884610353986     -3.32687478376399      1.64056156124923
  H   6.11486873540387     -2.66703158300062     -0.97103272196123
  H   6.72155527384577     -2.31851721369578      0.64953800876993
  H   6.84817148581736      0.08857376962434      0.11249851630732
  H   3.11701207960689      2.26826991801964      0.00370534356963
  H   7.29360124737195      4.49356158540720     -0.37512017483367
  H   8.81888038609065      3.56599876899762     -0.28636027926691
