20
Coordinates from ORCA-job 9868optt
  Br  1.32586559791670      0.27864956609841      0.76550060847733
  C   3.12971950328213      0.05427533709068      0.21720411306781
  C   3.68317919402923     -1.23080641932361     -0.03284357472046
  C   5.10754700015185     -1.25841976515114     -0.27951145899946
  O   5.71911254400296     -2.45695162619683     -0.51621404082632
  C   5.13964094378781     -3.54376811888217      0.21569618194549
  C   3.69482058855888     -3.66603000259490     -0.09215457618369
  C   2.99475630251902     -2.48164968865316     -0.14858205428118
  C   1.59841190880601     -2.59013590114846     -0.45624963023944
  N   0.50300605707880     -2.78923561847661     -0.74771679426339
  C   5.88260079655898     -0.13996442838213     -0.36272114242746
  C   5.28070402016514      1.12709948155400     -0.17458862667906
  C   3.89893642773080      1.19165286219730      0.13352315809565
  S   3.54041410751179      2.85261706556740      0.37244734910187
  N   5.15769612290583      3.33415502852491      0.06189121493009
  N   5.90467859333956      2.32127311597158     -0.19805630492184
  H   5.30822495161784     -3.34081346512749      1.28531440688688
  H   5.70490511346502     -4.43065918472902     -0.06452763398520
  H   3.23381268127015     -4.61533463967426     -0.31774657310119
  H   6.94096754530146     -0.22995359866448     -0.56166462187642
