28
Coordinates from ORCA-job 9872optt
  Br  0.60964638529171      0.12981653015733      0.46831548631318
  C   2.97811627270318      0.07291014710547     -0.32314668872348
  C   3.65231251738634     -1.12211446458857     -0.26020610253390
  C   2.95000049448481     -2.44419278480271     -0.41370359497913
  O   3.85865798790222     -3.51341819018154     -0.64553450818667
  C   4.90404425325663     -3.52307841237810      0.30391423923301
  C   5.81863008788591     -2.32305333939700      0.07440079232927
  C   5.02905646549274     -1.03841014735347      0.02042479782335
  N   5.69911423373664      0.07433513923450      0.22442541311420
  C   5.02952206657848      1.27147755863710      0.16490252233270
  N   5.54001014364404      2.44024264832240      0.32665425330193
  N   3.65282555990084      1.20094185253536     -0.10812054869046
  C   5.63227449153413     -4.82414919734978      0.18538372314859
  C   5.27975223406766     -5.86477073962269     -0.63108244364259
  N   6.20167281565165     -6.86465362749521     -0.46476103049974
  C   7.14264899395830     -6.47684543490073      0.44655041656526
  C   6.81890912753647     -5.21348639686564      0.86866326022391
  H   2.26923533722868     -2.42263959129056     -1.26335929695353
  H   2.35200482318321     -2.66276778419995      0.48120197279031
  H   4.46422939498046     -3.43924147464965      1.31045839855140
  H   6.33919806681070     -2.45913362679850     -0.87799856867346
  H   6.57621464756583     -2.24146848222589      0.85521104068885
  H   6.53146265952004      2.32139186870311      0.51200527728166
  H   3.16538775006558      2.08665828705569     -0.12330528463871
  H   4.45113292435787     -5.95257457364389     -1.31119131227913
  H   6.19063110626522     -7.74429537795149     -0.94660731951955
  H   7.96020773313059     -7.12339283826676      0.71653092314851
  H   7.37110142587989     -4.62808754778876      1.58597418247425
