22
Coordinates from ORCA-job 9874optt
  Br  0.95297462597525     -0.13837844084265      0.06957346481824
  C   2.85970816198772     -0.02030836010077      0.01026917731317
  C   3.64267664872105     -1.16346602995432      0.03475809480842
  C   2.96076754938167     -2.51128576108825      0.05313164109554
  O   3.81722126810288     -3.61652032543160     -0.19937977552831
  C   5.03294920360832     -3.55297237726402      0.51928557104284
  C   5.85677920462400     -2.33843973887409      0.12141931809134
  C   5.03124684333095     -1.08031219489805      0.06157888888817
  N   5.80081647718019      0.03706161593340      0.00064362653225
  C   5.34913092796766      1.27004390990312     -0.04426209327274
  O   5.96264040889044      2.31613054110531     -0.11315113710348
  S   3.48702645314413      1.58961193081724      0.02876590435447
  C   4.71294241006326     -3.58792921107536      2.02926595827291
  O   5.39136167586354     -3.11634195560251      2.89051230415799
  C   5.75600983022650     -4.80608076555431      0.26262129571702
  C   6.36337083411510     -5.82616819090295      0.10571392708613
  H   2.20157296016774     -2.56309770112233     -0.72599861500118
  H   2.44308318042717     -2.65420392646211      1.01192387801443
  H   6.32258422058623     -2.53187845022867     -0.84967104226379
  H   6.65982403391798     -2.19834615021473      0.84687746239659
  H   3.78464318004035     -4.15112900892742      2.25377417463085
  H   6.90566990167779     -6.72698940921487     -0.04965202405087
