23
Coordinates from ORCA-job 9875opt
  Br  0.92620304758534     -0.05712184727557     -0.54610565160797
  C   2.71997128765802     -0.20933491489892      0.05428277776774
  C   3.49443797887170     -1.36901445879328     -0.03461214247263
  C   2.86366018943691     -2.70686492535963     -0.02716592034367
  O   1.63194588029467     -2.86995326039625      0.03334849336802
  C   3.76905974041164     -3.81590823049835     -0.02643856638676
  C   5.14020947738100     -3.70712506008262     -0.03231952302090
  C   6.01031060979043     -4.91734810587862      0.02191305694824
  C   5.54025053898706     -6.24345023899688     -0.48480007492692
  C   6.59117921487002     -5.48197307243982     -1.24062207033650
  C   5.70774545151436     -2.42188632123890     -0.08137631257970
  Br  7.60828707806778     -2.25450607631018     -0.15322027689779
  C   4.92488224797544     -1.27376805588088     -0.09597867650152
  N   5.58936085912985     -0.05379143962977     -0.27357080975991
  C   5.04481730262905      1.06257641627214     -0.06097330306026
  S   3.39431483846748      1.34527576700184      0.47325645483574
  H   3.30163230605884     -4.79037407043730      0.03810964760549
  H   6.67737139119886     -4.94894803276081      0.87607522415044
  H   4.55363298695501     -6.29562090587547     -0.92240745166400
  H   5.84138787253814     -7.12758496230284      0.06014887364486
  H   6.29011237935449     -5.00218067563004     -2.16193068545032
  H   7.61304574070979     -5.83425627605824     -1.21752169606203
  H   5.61818158011379      1.97415874747061     -0.22109136724962
