32
Coordinates from ORCA-job 9876opt
  Br  0.46807189195098      0.14781016858954     -0.62854216487472
  C   3.07715757289301     -0.16335573733997     -0.44930811897926
  C   3.60885157102148     -1.34568999563845     -0.07761600228631
  C   2.77758230310204     -2.57846891451449     -0.36362018376749
  O   3.43929955682175     -3.56576972106442     -1.14827440616949
  C   4.26163518697601     -4.42041077070884     -0.41111062743054
  C   5.56349883936567     -3.79495613178211      0.06728575671751
  C   5.45534802306638     -2.69630317591379      1.13186254803425
  C   4.59596569627191     -3.08702580455161      2.35825131752695
  C   5.14222541212129     -2.18387989711263      3.46142283762414
  C   6.63688991706533     -2.03849811118541      3.11078847825829
  N   6.79574430718726     -2.51536432841248      1.72629233844694
  C   4.93119357044123     -1.37998895035649      0.53273299488811
  C   5.72219809367941     -0.28125794859251      0.62593046366892
  C   5.41363390342777      1.07102192856067      0.20217643213561
  N   6.21126787642552      2.07521284927753      0.22388514697177
  S   3.76086618968146      1.37198430366102     -0.35473751603426
  H   1.91207935489140     -2.25265526961228     -0.93333147127233
  H   2.40389966512956     -3.06080055321038      0.54844182672348
  H   4.50336313320036     -5.25851740334845     -1.06905858085737
  H   3.70802403223279     -4.82566979957259      0.44958167163878
  H   6.11111684018824     -3.39849271382829     -0.79099207826378
  H   6.16004558807195     -4.61165475015768      0.49324979288909
  H   4.78950441569974     -4.14073303453827      2.58838134833512
  H   3.52683804431482     -2.95733122557380      2.21674008272393
  H   4.98407294556118     -2.59373608748580      4.45888596183076
  H   4.64874978084678     -1.21282062819152      3.41445370670219
  H   7.26996927913829     -2.63006680142550      3.77458320787632
  H   6.95408991753906     -0.99739739966374      3.19557486073093
  H   7.25843733083380     -3.41369569463394      1.73006106532103
  H   6.71606122713115     -0.39961052076277      1.04027078755161
  H   7.11931853372184      1.78112211908965      0.58373852333972
