26
Coordinates from ORCA-job 9878opt
  Br  0.73992471525274     -0.68795713335044     -0.39399793991848
  C   2.02121904616744      1.36388945485351      0.49445494567676
  C   3.14502548514707      1.74141525914885     -0.15635484575670
  C   3.09111632418914      1.84980754334586     -1.65975174491965
  O   1.89530189895520      2.49983039637515     -2.04751388373640
  C   1.59096426819373      3.73621118118621     -1.42043950279128
  C   0.07688218436460      3.96110726317301     -1.45931004225689
  C   -0.85619243555660      3.18978039915104     -0.54661052194071
  C   -0.59447003037351      2.29971616472841      0.55274021602841
  C   0.41909260922156      2.68260751977549      1.64483490279584
  C   -0.14239918917867      3.78005875817630      2.12428979742688
  S   -1.61383557167480      3.81988657416277      0.90675645618924
  C   1.79034937437133      2.16288622857752      1.63019586583222
  N   2.72334201530372      2.74956379954868      2.35477650212095
  C   4.01490505921813      2.68425145597201      1.91671318674910
  O   5.01374436320489      2.97768520004596      2.55126366608352
  N   4.13199529321739      2.37298060160666      0.54254728616416
  H   3.03880625192626      0.85802816167253     -2.10817478631944
  H   3.97360887984744      2.38713738302712     -2.03746637427811
  H   2.08025433951962      4.54601305142167     -1.98039343673381
  H   1.96278573345778      3.77789890162602     -0.39518304109942
  H   -0.22748884085156      3.73148996054053     -2.48613933656304
  H   -0.10959682735285      5.02945452629697     -1.32501857957104
  H   -1.17242200637121      1.39390851898133      0.69376342879673
  H   0.15909737885271      4.51113020350455      2.85932712560989
  H   4.99098968094833      2.66621862645204      0.09969065641131
