25
Coordinates from ORCA-job 9886optt
  Br  1.13646465993739     -0.09549829049605      0.77656144530148
  C   2.95803597443658      0.02557302850631      0.30125200987566
  C   3.60595141957807      1.27806763280045      0.14131002382782
  C   2.95432638137117      2.54323204612421     -0.10700021705995
  O   1.74256093305927      2.71215720698492     -0.24761151064812
  C   3.85608734951457      3.76513439171025     -0.30871084453399
  C   5.15805634630869      3.71474503118876      0.47638753821915
  C   5.86358469526730      2.42592568004336      0.19850888228916
  N   7.15259656290037      2.42181695550945      0.11889918673251
  N   7.74237011671091      1.21865270043363     -0.06656237364858
  C   7.14203412252479     -0.01676329053361     -0.10697358110083
  N   7.75145386712880     -1.15250294592960     -0.22914404670593
  C   5.70385104666405      0.04650737015897     -0.01737172094737
  N   5.01751349135990     -1.12867184096180     -0.06663738895150
  C   3.64213972852961     -1.23711339977353      0.20836702878008
  N   3.07400121594478     -2.38861457376240      0.33711297374113
  C   5.04936420296366      1.24379903208022      0.09227875353417
  H   3.26073951064351      4.63794430218950     -0.04177057808595
  H   4.07345114607843      3.83772067820963     -1.38047188978384
  H   4.92578390333196      3.74773729656672      1.54675816801180
  H   5.81934852693800      4.55173678488016      0.25070960084860
  H   8.74636663853200      1.26096564987471     -0.11230519177983
  H   8.76006606473295     -1.03581371888019     -0.28520389209979
  H   5.58105826576733     -1.96578559308508     -0.11681929260576
  H   3.76079382977579     -3.13095213383902      0.22243691678986
