24
Coordinates from ORCA-job 9895optt
  Br  1.05843667901278     -0.45165595488919     -0.24527844410503
  C   2.93797405223092     -0.25020166157752     -0.12049083750181
  C   3.63550435990475      1.00067957663557     -0.22770838155265
  C   2.98746760346581      2.26112938771349     -0.44760218109259
  O   1.77598252894674      2.42761213868537     -0.62578956628814
  C   3.85103622322114      3.54718370306164     -0.44349626750948
  C   5.17482069322856      3.37486050914921      0.29989330074200
  C   5.89751159096525      2.16094044351782     -0.25490160749451
  C   5.07170065506539      0.90791376410166     -0.10556150623223
  N   5.75806535148959     -0.18198926583746      0.11300305945207
  C   5.07469441296425     -1.35032525619413      0.22027964096576
  C   3.66703600739736     -1.39568370042431      0.10246464759281
  S   3.14288645122986     -3.03384134250291      0.29533293434521
  C   4.81326222872938     -3.50513865741884      0.51109861491058
  N   5.68307954623881     -2.54371422674451      0.44734590320490
  C   4.07079724463956      4.00329537933293     -1.81682961565816
  C   4.27387344726613      4.36945983187507     -2.94166652744953
  H   3.22587650479678      4.29241171663379      0.05452282867745
  H   4.95854072279644      3.22212747946779      1.36032534964791
  H   5.78500984473314      4.27512022687644      0.20380400305441
  H   6.85436480388051      1.98666689281350      0.23466935828259
  H   6.09517305817061      2.32493720375522     -1.32001488067213
  H   5.06719437431601     -4.54004720949953      0.68542479512904
  H   4.43371161531016      4.67725902146889     -3.94582462044846
