27
Coordinates from ORCA-job 9897optt
  Br  1.23782355235947      0.30787561085877      0.15607106548118
  C   3.16547929173287      0.10135703366523      0.00089643218049
  C   3.75089687462784     -1.11980907874761      0.17433545550045
  C   3.02569022698506     -2.37861378624139      0.50695013350006
  O   3.17956991210169     -3.41966549865946     -0.47424687392934
  C   4.32008657185971     -4.21305398338372     -0.30089905527834
  C   5.64307132644550     -3.54623792934061     -0.68072650116476
  C   5.99913793922859     -2.36827170751649      0.23387774432110
  C   5.18304288054448     -1.13405514635402      0.03515667566580
  N   5.85925322635963      0.05750825903991     -0.08449126385000
  C   5.15434522514507      1.14032708043638     -0.21007996406651
  C   5.90113921318019      2.44825862298497     -0.36690026477439
  C   5.74634377504188      3.33898217662217      0.78279164546298
  C   5.62607821984881      4.07033604517882      1.72561309140924
  N   3.79256065605997      1.25595282854761     -0.24985504079761
  C   4.12424769239826     -5.43662606006175     -1.10643344866576
  N   4.01844158939515     -6.39789750419501     -1.72186468797024
  H   1.95647224769354     -2.20226992349360      0.57206953766527
  H   3.37219685373100     -2.77711844190785      1.47146183795364
  H   4.38906724179622     -4.54114736687856      0.74827038408025
  H   5.57832918068245     -3.21142953608879     -1.71806965503656
  H   6.42007084546869     -4.31436138493973     -0.61533153128295
  H   7.03669581949134     -2.08695428137983      0.05000028007944
  H   5.96594182463925     -2.73929415680223      1.27676984422022
  H   5.51746431162393      2.96266541995536     -1.25337511218059
  H   6.95767474717131      2.22693970301753     -0.51582022876984
  H   5.50187875438798      4.70560300568392      2.56782950024676
