28
Coordinates from ORCA-job 9901optt
  Br  1.19890046482849      0.41441670043807      0.10520509950469
  C   3.09565822457262      0.10996087945519     -0.06960796505839
  C   3.62216593251007     -1.23343494369959     -0.11159746935445
  C   2.83923138725318     -2.42284296671469     -0.22153134087885
  O   1.61977306313422     -2.49002547925909     -0.45250425135497
  C   3.58602189968299     -3.78044361230021     -0.12801858540363
  C   2.77784060869661     -4.77507476115361      0.57549612242438
  C   2.17988997427571     -5.61775023589394      1.18548809210910
  C   4.99030799331581     -3.73918462915424      0.49026539545328
  C   5.83541259623710     -4.92511306130257      0.02929271890116
  N   6.32826151038303     -4.56022797737798     -1.31517050739122
  C   6.16344402270892     -3.10065562371082     -1.48218054029588
  C   5.78406997441496     -2.57139004232352     -0.08555633457423
  C   5.06264683569422     -1.25955289316607     -0.07595270813040
  C   5.78318378038005     -0.08843758465818     -0.06957480309184
  C   5.13153977828130      1.14342587294609     -0.09881038785026
  N   3.78370989725329      1.20479556536046     -0.07614529034548
  H   3.67868440564508     -4.13152480972643     -1.16592508519959
  H   1.61307489223993     -6.33786394784809      1.72264801830215
  H   4.90578617896248     -3.67597753696300      1.57596561272755
  H   5.26815983311607     -5.85694714047975     -0.00130729870377
  H   6.68384719300491     -5.06841588075627      0.70548965676537
  H   5.79562841706633     -5.05155804335415     -2.01798003323710
  H   5.36961066065215     -2.85843317274106     -2.19477451581766
  H   7.08408503499273     -2.63569495424758     -1.83936330075940
  H   6.70843960615684     -2.46884399250167      0.49229965523537
  H   6.86782355016592     -0.12967721999608     -0.04301030504480
  H   5.66580228437476      2.08447149112885     -0.10913964893112
