23
Coordinates from ORCA-job 9904optt
  Br  1.25887922872700      0.04593763464756      1.04323982818343
  C   2.88778559619246     -0.00227834935536     -0.15389565225316
  C   3.59611184428190     -1.22043861699226     -0.26862810824100
  C   3.21027217024922     -2.60705606010560     -0.25629629465503
  O   2.11601817149532     -3.13218082653868     -0.28920740325254
  C   4.54038341461801     -3.45400139075454     -0.08605103498270
  C   4.64518994985781     -3.90745124659360      1.29324580452481
  C   4.72170546774537     -4.26432367174253      2.43506792616910
  C   5.65615727913210     -2.45765889181532     -0.48218250325243
  N   6.94560302616998     -2.51611878264580      0.19909783293294
  C   7.52445990777289     -1.41926101233362      0.42980155433166
  O   7.08627771061310     -0.15088941949241      0.21269111191161
  C   5.71414828194285     -0.04277624811892      0.00482408073956
  C   4.99551255890443     -1.14322354958808     -0.26293310016492
  C   5.05438110878494      1.22569293540949      0.17877382795962
  N   5.57296198009281      2.37505620307826      0.43031264619413
  N   3.67418243346070      1.13413173994682     -0.01537170213852
  H   4.49791890864518     -4.32215440060844     -0.74509580045501
  H   4.77795710097317     -4.57106205799566      3.45054341778118
  H   5.84942069980679     -2.60327825066125     -1.55081643707095
  H   8.51895428779497     -1.39711589027010      0.86458652874686
  H   6.58087267055967      2.27340777330281      0.50836906138295
  H   3.20184620217921      2.02304237922728      0.05892441560841
