25
Coordinates from ORCA-job 9908optt
  Br  1.52087021625354     -0.82151948514738     -0.62743628699435
  C   3.26711933710460     -0.26695336736122     -0.11615636051138
  C   3.70646212382077      1.06626967109644     -0.03547857684445
  C   3.20390435029623      2.40705698243547     -0.18911668109933
  O   4.30785820076864      3.24683939080039     -0.24842043259286
  C   5.45652620110184      2.50260727278704     -0.05162233247732
  C   6.73930171889807      3.24654549265770      0.04443354654704
  C   7.26005101646458      3.74260737504759     -1.23696438129513
  C   7.68768639757987      4.13774140707893     -2.28504010943446
  C   5.14384583860338      1.20866223717251      0.10119748995295
  N   5.93649611696372      0.10929107624938      0.41969342696136
  N   5.49555469333758     -1.18271517387701      0.18087052519236
  C   4.21118344425700     -1.31056062459533     -0.03926408928842
  N   2.07288355002499      3.01765696030966     -0.24345331248404
  C   0.84820219944561      2.34182718037247      0.03438959774947
  C   -0.18477795934042      3.35853549482341      0.46078499331559
  O   -1.29007349981590      3.09143829254467      0.85634923270445
  H   7.48968066072971      2.58992336958490      0.49280375848961
  H   6.62525704727209      4.09940153577505      0.72272506876595
  H   8.04674501082745      4.48607994250856     -3.22248515002945
  H   6.91962495506670      0.18904700456724      0.22020719255238
  H   3.87878846940941     -2.32970803049769     -0.19287043468241
  H   0.91676454226252      1.58422466607638      0.82855368584881
  H   0.42080493278002      1.81898614274950     -0.83369276572870
  H   0.15924043588783      4.40871518684127      0.37799239538232
