28
Coordinates from ORCA-job 9909optt
  Br  0.98851471245950      0.16950953405376      0.13307007757509
  C   2.88611400271963      0.08377876614534      0.02355474604350
  C   3.65237262581613      1.27525254393980      0.04318858050843
  C   3.21851103846459      2.70100103148666      0.03534605648984
  O   4.43457317211881      3.45526029684306      0.06466231665867
  C   5.57423194539841      2.59307557571451      0.07451207393990
  C   6.40971388205348      2.87008850249870      1.31818335716946
  C   6.83294298233880      4.33983008671459      1.38453421056196
  C   7.60954771873266      4.66071886754529      2.57833310777459
  C   8.24178868385108      4.90545631085583      3.56815288859689
  C   5.02807721739171      1.19564743912486      0.03007984005566
  C   5.73428152178910     -0.00112109280399     -0.00221672050688
  C   4.96583640673944     -1.22131553177695     -0.02076282934070
  C   3.54282679178597     -1.13497506325532      0.00139846349582
  S   2.83208277374754     -2.71804206171144     -0.01261795745011
  C   4.38807460749746     -3.49598339132722     -0.05325516083593
  C   5.40081242729219     -2.55948493598065     -0.05252839538466
  H   2.60614504758683      2.97630406409936      0.90332303579158
  H   2.64983567693227      2.97507236235826     -0.86429332448023
  H   6.18015768598652      2.81825644371637     -0.81621756640912
  H   7.28859811052264      2.22134858262746      1.31274613453671
  H   5.81583130856808      2.61284095021481      2.19792652053862
  H   5.93655369535671      4.96250278999279      1.35670181763527
  H   7.42211460273177      4.59352649447575      0.49847486746544
  H   8.79815020634508      5.11874752655276      4.44789037452061
  H   6.81671561061641     -0.02878605002778     -0.00170541064569
  H   4.45590783853624     -4.57025190354513     -0.05881435457631
  H   6.44868770662083     -2.83325813853151     -0.06866674972842
