25
Coordinates from ORCA-job 9915optt
  Br  0.88050589119013      0.04727925758538     -0.29095988765794
  C   2.78012083613267      0.04021507329838     -0.02305124988086
  C   3.51753096371527     -1.11511065498216      0.08549539357101
  C   2.83609027245036     -2.46367573307242      0.09939600982106
  O   3.19804208579001     -3.31279332384146     -0.98653770036760
  C   4.29805950601517     -4.13473038224550     -0.74119938551354
  C   5.64712136591299     -3.40587111699513     -0.70152409218925
  C   5.99835563407682     -2.82513514185134     -1.99413488857375
  C   6.30101107838424     -2.34904722352966     -3.05033366233897
  C   5.74065567393148     -2.31804346594703      0.40914882047055
  C   5.49692608867484     -2.96537819235400      1.71020119819318
  N   5.31077484873561     -3.50704419344770      2.70542842801857
  C   4.92507788479524     -1.05445661130306      0.20338843841240
  C   5.68505210692387      0.13622571053108      0.15004424123012
  C   5.21360599498419      1.44775527725394      0.05355599971797
  O   5.84333841966214      2.49935995721588     -0.00118530495684
  S   3.38693178583751      1.67333060599752      0.02180225961749
  H   1.76129212956471     -2.34021449998590      0.02585947402415
  H   3.04423987920326     -2.98267762176010      1.04298892595805
  H   4.32738121336399     -4.87084590514418     -1.54568763446167
  H   4.17482978807605     -4.66544115997435      0.21292869890692
  H   6.39290556372983     -4.17350918799882     -0.46237083902767
  H   6.55332156733052     -1.90220459148662     -3.98100992212997
  H   6.78671046086410     -2.00863610659925      0.43707827340871
  H   6.76711896065491      0.06864923063652      0.18367840574789
