26
Coordinates from ORCA-job 9919optt
  Br  1.43072072717339     -1.82456551932626     -1.98743505098073
  C   2.82768409413070     -1.67821840721530     -0.66420799975315
  C   4.15939589489411     -1.93522285862603     -1.04167677941466
  C   4.64725646811612     -3.07737099254239     -1.76023281928713
  O   5.78063499912815     -3.17700804963760     -2.21750999300929
  C   3.72231897193707     -4.31732697668926     -1.87810504237188
  C   2.97728355554192     -4.54661620154019     -0.64465149299148
  C   2.38001645081963     -4.45330520344370      0.39264664326099
  C   1.58739514942822     -4.05535286527989      1.55436075597651
  C   0.61740282071133     -2.90837299828203      1.18648376426099
  N   1.15478531470234     -1.55030145286406      1.17026591266568
  C   2.43239931200327     -1.26003837918330      0.64179451950714
  C   3.34763815647069     -0.56904737435070      1.36521405473591
  N   4.47764114373756     -0.03623955452350      0.71551695041798
  S   5.43860103494546     -1.03636323757765     -0.25220035767238
  O   6.17105696702101     -0.13139030177588     -1.09934055837914
  O   6.23776126274900     -1.89243523789949      0.59330979478795
  H   4.38376876984604     -5.14554438665884     -2.12899088210697
  H   3.01934605981952     -4.17951152282436     -2.70414511915931
  H   2.24946676991362     -3.73603747264754      2.36501209819491
  H   1.00130483748552     -4.90012921146336      1.92686131379144
  H   -0.20140564415937     -2.89661993724844      1.90877898130976
  H   0.18537861082958     -3.13606052007549      0.21085146924357
  H   1.03669225101250     -1.08937162292675      2.06001099719987
  H   3.22943642435752     -0.36423344290077      2.42183928656874
  H   5.09801959738497      0.50468372750286      1.30354955320469
