21
Coordinates from ORCA-job 9921optt
  Br  1.05233830344487      0.40749157951121      0.00240079713525
  C   2.87184737414042      0.02146334495830     -0.00085313983530
  C   3.50698888861621     -1.20820604001138     -0.00152512521787
  C   2.80025055764450     -2.49562282087529     -0.00130348496532
  O   1.55878585810150     -2.59748897005507     -0.00038356048958
  C   3.67125204241027     -3.63135187900254     -0.00233069064487
  C   2.96151872600491     -4.96198084754489     -0.00206558349477
  C   3.82820144784342     -6.13588623526883     -0.00295244587936
  C   4.53802233261762     -7.10329870147556     -0.00374919988097
  C   5.04265235032614     -3.48639821646093     -0.00348052288207
  N   5.68883708839432     -2.31158314163961     -0.00365680014608
  C   4.93504961402537     -1.22830890259061     -0.00267410731354
  N   5.62381121428198     -0.00269458820535     -0.00272125602482
  C   4.95138650925414      1.06099939338172     -0.00196894528484
  O   3.60260466997627      1.21221298077004     -0.00110441949592
  C   5.61498621443797      2.35043497176364     -0.00192625621351
  N   6.12908185661700      3.37492802359452     -0.00189910413382
  H   2.29195942459780     -5.00486300965297     -0.86696441188776
  H   2.29330513521667     -5.00518795120535      0.86385816582872
  H   5.16522032177244     -7.96102717539133     -0.00446180990139
  H   5.67090007027612     -4.37163181459968     -0.00423809927219
