27
Coordinates from ORCA-job 9923optt
  Br  1.11180397248945     -0.26987095661668      1.03095829200128
  C   2.94157838308301     -0.00209700135275      0.47155619991929
  C   3.39251036911230      1.32832581297333      0.22845694274768
  C   4.81195546546366      1.39315316024860     -0.03964695041743
  O   5.53945382198631      2.55392344858859      0.19710256327609
  C   5.40642145650616      3.67615620667962     -0.64534538023843
  C   4.06130365080952      4.37240667604251     -0.50540166684275
  C   4.00353231163096      5.61723717248910     -1.38657508214997
  C   2.65791583653471      6.32535510901710     -1.21736635178637
  C   2.52719935478799      7.48083809506664     -2.10041803382860
  N   2.45224498217341      8.38563890644566     -2.80182331701056
  N   2.98909552847401      3.44989824814793     -0.85643397497589
  C   2.59512845889231      2.52436838311283      0.19923046069971
  O   1.67725863403048      2.85418581088339      0.94654479288646
  C   5.53781150898918      0.23754570639273     -0.22429258025747
  C   4.91118881146626     -0.99553184621684     -0.09305118080370
  N   3.61484900602127     -1.09059194006497      0.30607386338719
  H   5.54015288545335      3.37416438952753     -1.69614912564619
  H   6.22806102695466      4.34475570136737     -0.37599926777908
  H   3.91018810079969      4.66079515544443      0.53958268448121
  H   4.12498868801883      5.32486135422214     -2.43377365773430
  H   4.82094645703621      6.30034494362834     -1.14252210039457
  H   2.53034225871716      6.66205474921055     -0.18657344521282
  H   1.85666226042063      5.61238679904141     -1.41928028237015
  H   3.29926749482231      2.90215874390540     -1.65605145075637
  H   6.60550500584214      0.30646788819338     -0.39517934760462
  H   5.43563426948394     -1.92693071637740     -0.25762260358965
