21
Coordinates from ORCA-job 9926optt
  Br  1.10353867277268      0.15780284844705      0.14748314034648
  C   2.98068979908051     -0.00574188599533      0.02868174613270
  C   3.59577022489579     -1.26456656500908      0.07618199210067
  C   3.05185867836242     -2.65115688770643      0.11982625073773
  O   4.18978294660794     -3.48375869047633      0.40826588948100
  C   5.40554317296897     -2.75441752619340      0.31798273149756
  C   6.21453255917544     -2.96873634412515      1.53175385981860
  C   6.86357145459113     -3.12725239053447      2.52363074878868
  C   6.17925428718137     -3.24819142199579     -0.85736957882887
  N   6.77140145773883     -3.60863499017023     -1.77005841350115
  C   4.98840373514449     -1.31368439893612      0.13258946176880
  C   5.74387154597546     -0.19088114882861      0.09333461842688
  O   5.14612199950168      1.02904995321425     -0.07703233434918
  C   3.74089121570701      1.18884069829090     -0.04544673272211
  O   3.34900738007582      2.33366232521763     -0.09301866304405
  C   2.53305587960783     -3.05696914647142     -1.24696743011270
  O   1.37327316080333     -3.20332735957442     -1.52211839366969
  H   2.27663930330766     -2.81701264391231      0.87274259975228
  H   7.43063498387041     -3.25998512632610      3.41282574516035
  H   6.81734724246029     -0.13703866457974      0.18696747278081
  H   3.33781030017080     -3.17400063433485     -2.00125471056479
