27
Coordinates from ORCA-job 9930optt
  Br  2.61805958041894     -1.79072157827070      1.41020243971208
  C   4.19081907458705     -1.09264236999306      0.59422203219767
  C   5.44742570901186     -0.98206854366322      1.20718665543721
  C   6.23397459692885      0.12397143367856      0.61423053302917
  O   7.07295443279240      0.77401037051814      1.24271807432213
  C   6.03222186737737      0.27085665530026     -0.81086178649243
  C   7.19939789103855      0.67022955026065     -1.66019322562409
  C   8.06254814994873     -0.54960278023117     -2.04914114251725
  C   8.94283459468527     -1.15422725555642     -0.95076504706668
  N   8.19756865455356     -1.78403539513197      0.12826288309838
  C   8.54027266380450     -1.54986881816139      1.42794412393359
  O   9.66002166113068     -1.18165177777587      1.73393184317583
  C   7.48074370345459     -1.77825740299315      2.50189026212471
  C   6.01147615490706     -1.93770735246319      2.10647775287351
  O   5.38734705699714     -2.91879757159245      2.54730580644737
  N   4.91571472477794     -0.10327625505200     -1.43312872095406
  N   3.98595357260392     -0.64224392268994     -0.65331427353708
  H   7.81072741806786      1.39301708450570     -1.11650731578684
  H   6.83383276106231      1.13856288271808     -2.57737460344146
  H   8.73942060032278     -0.25646379600402     -2.85815576742270
  H   7.40284244730381     -1.32039460550309     -2.46282238351499
  H   9.56072309797640     -0.37983696779149     -0.49137893284967
  H   9.62548368616389     -1.87738315480083     -1.40944961382723
  H   7.23438329871430     -2.02428389820573     -0.04897619577654
  H   7.75210712213208     -2.67893403005362      3.05443478007654
  H   7.60273890392694     -0.92376386548276      3.16837873055885
  H   3.07840657531092     -0.75748663556527     -1.07611690817605
