25
Coordinates from ORCA-job 9933optt
  Br  0.95273370023449     -0.21061320602771      0.28086197597415
  C   2.83686934924196     -0.05110556305464      0.09006607204546
  C   3.51953871274853      1.21118676076450      0.00318955537470
  C   2.84681762441735      2.46376813486237     -0.20353879872399
  O   1.63354100394427      2.59950805575033     -0.42489468280131
  C   3.68388956928080      3.73846080541047     -0.17216044527460
  C   4.97973635493855      3.59662884509223      0.60316381479860
  C   5.77801387752380      2.42775323052270      0.02160689422531
  C   7.02569011495520      2.27121424562127      0.84625851388540
  O   8.14923445371049      2.46627109181581      0.46030879306507
  C   4.96446621932752      1.14453776092324      0.04029168740426
  C   5.64846272865018     -0.04076395496374      0.06847471135254
  C   4.95439286827491     -1.27373770119571      0.08547984044822
  C   3.54011532512536     -1.23323784396277      0.11949514304635
  S   2.94661707546272     -2.86443217387543      0.20879222872210
  C   4.59950999993362     -3.43610108949299      0.17404952439995
  N   5.51201079717515     -2.51444798204645      0.11138857700013
  H   3.04415788723901      4.51601574351424      0.24839851715623
  H   3.90237670079231      4.03220922867734     -1.20542966807569
  H   4.75686097355450      3.38851135606805      1.65459548509205
  H   5.57384831957817      4.51348508252693      0.56338027764512
  H   6.08002307840264      2.67614773225841     -1.00028786669410
  H   6.83553540850975      1.97905466598837      1.89941186885844
  H   6.73271276513619     -0.06037741977091      0.06614800559059
  H   4.81384509184244     -4.49393580540593      0.21094997548502
