25
Coordinates from ORCA-job 9934optt
  Br  1.10930762555409     -0.17018071803232     -0.21645513151783
  C   2.98924754071458     -0.16477615851581     -0.02623023215807
  C   3.69794522443707     -1.37641890319975     -0.02592076822079
  C   3.06703190706126     -2.69706519878274      0.03815555765041
  O   2.54359907489504     -2.96374019670602      1.42473468822097
  C   1.43896340215701     -3.83611780133017      1.39176315313683
  C   1.05599563550802     -4.21864533239050      2.74955533666695
  C   0.73127516380001     -4.55053658049619      3.85446176644116
  C   4.00474797987612     -3.82765557824756     -0.26436682903179
  O   3.63959314022894     -4.85825395026396     -0.80562017464015
  C   5.39299662219935     -3.66251737914312      0.30924176229608
  C   5.97729630870288     -2.33185183260694     -0.11855908163784
  N   5.07181974518173     -1.23887250594083      0.20029815361812
  N   5.69210116187630     -0.06970121584932      0.29552325938752
  N   5.07373067675293      1.02293200515159      0.29198397551706
  C   3.63100840763817      1.08186273800378      0.13320843007226
  O   3.11687288194496      2.19049389675560      0.15426118691360
  H   2.19654785296604     -2.74103500451463     -0.61988765159417
  H   1.67405107604343     -4.74404370628526      0.82218086940989
  H   0.58665730035316     -3.34657301182355      0.90114498167116
  H   0.45236543883423     -4.83379601685925      4.83984604819647
  H   6.01952048564309     -4.48721376831012     -0.02735259805699
  H   5.31034303735893     -3.69734042948193      1.40110607106131
  H   6.13913597342251     -2.33984335301834     -1.20413346183676
  H   6.92084633685011     -2.11310999811262      0.37706068843458
