27
Coordinates from ORCA-job 9935optt
  Br  1.71414293221418     -1.20269845370872     -0.52539553611848
  C   3.01806987972381      0.19216517818642     -0.20236069383803
  C   2.94435893945219      0.90363173300674      0.95873937068400
  C   1.70631014030400      1.29026142745784      1.67616656410014
  O   0.85799688835013      2.20177849211144      0.92752855846777
  C   1.51595461927528      3.23010775372098      0.20542768119844
  C   1.64062820112032      2.94371069455216     -1.29484773463370
  C   2.77057339904247      3.71567723664478     -2.01315951185631
  C   3.68282624741609      2.85222957896772     -2.90015417287865
  O   4.82457699810592      2.31793217085948     -2.22280125688859
  C   4.47664489622668      1.64912211644331     -1.08284287537808
  N   3.82246605428924      0.48007613736592     -1.20866911021057
  C   4.68169885890836      2.32921843032439      0.15231800126425
  O   5.31872805066522      3.34204847907095      0.37332522581487
  O   4.04343092657019      1.71667971006133      1.23415561356468
  C   0.73054747831548      4.49215501470718      0.48682278569734
  O   0.45627239348617      5.33188882236508     -0.32700657951060
  H   1.97904601044055      1.77205570660595      2.61977667345284
  H   1.06606019493506      0.43345726956590      1.87491490857796
  H   2.51131389238704      3.41934195461352      0.63282493836191
  H   0.67936020105789      3.17637838361012     -1.75839904602435
  H   1.78800209569462      1.87289899018222     -1.40937068535298
  H   3.41007051367438      4.23419171853162     -1.29281633207307
  H   2.32859215534577      4.49157384708428     -2.64073221274956
  H   4.10354201796329      3.45330101164611     -3.70671915173235
  H   3.11068334729768      2.02730825369105     -3.33977816642985
  H   0.41210266773794      4.59450834233219      1.54305274449100
