26
Coordinates from ORCA-job 9937optt
  Br  1.14461936255393      0.16460850360311      0.18057924939901
  C   3.04053784163496      0.08231626710523      0.07087231848001
  C   3.69705924435088     -1.16948531476544      0.06210317098922
  C   2.94299292895246     -2.46544807600099      0.01018073070052
  O   3.76662460840590     -3.55013883002525     -0.39181300376991
  C   4.93002626867703     -3.62064997287972      0.38126084728628
  C   5.88858839177594     -2.44709426975873      0.10196047459221
  C   7.00042697940540     -2.46046764093749      1.15596647755492
  C   6.49099807182887     -2.14550894394743      2.53695901361011
  O   6.79691986044968     -2.77025516908543      3.52150286127517
  C   6.48261778911237     -2.64258316790295     -1.27952579883856
  O   7.64584684405873     -2.85370583622087     -1.50674861131997
  C   5.09501013518241     -1.15368023348466      0.06852961569068
  C   5.75872033773493      0.04599108935633      0.01320440326542
  O   5.10908698520206      1.25025287278473     -0.04137571604442
  C   3.70766803874178      1.32594622507898      0.02251844346585
  O   3.24203359227225      2.44731698811595      0.01731924169519
  H   2.13364885812451     -2.40776782709806     -0.71791284935503
  H   2.48743642721148     -2.70772462913544      0.98394417654541
  H   5.42249061381284     -4.56847112785816      0.14979300750471
  H   4.67471627787423     -3.62304354551213      1.45171130034922
  H   7.74784882649126     -1.70650028344176      0.89265870848627
  H   7.51072289431996     -3.42476226090844      1.17597012823982
  H   5.81001978108094     -1.27840006196192      2.60609601512834
  H   5.73988330159969     -2.57872102064399     -2.09573308967662
  H   6.83245573914524      0.15897626552462     -0.00602111525390
