22
Coordinates from ORCA-job 9939optt
  Br  1.21150395032253      0.08251546260788     -1.32391679730299
  C   2.88078524106693      0.03218515502666     -0.40293753046549
  C   3.47930679598929     -1.18864016383556     -0.11793656547318
  C   2.76606311961875     -2.46999438288924     -0.09695537875701
  O   1.46759084715339     -2.43436770988790      0.31618277705114
  C   0.82773920555894     -3.67960875705179      0.39141187550796
  C   -0.54138838694307     -3.49674506461121      0.86785004671760
  C   -1.66140800757642     -3.38163106073619      1.27270162908685
  C   3.47219464193019     -3.58630163814301     -0.30945431019183
  O   4.80425239791893     -3.51253043781619     -0.58834814320467
  N   5.51586779213255     -2.51925751406366      0.13956501966484
  C   4.85101983153818     -1.38136260986059      0.24363503275221
  C   5.63309995737303     -0.30212439653473      0.86898592250863
  O   6.66835755978883     -0.43942661300688      1.47521554907282
  S   4.99153736011771      1.35448789894619      0.72006532037192
  C   3.47353159555392      1.31144691584970     -0.21390587711978
  N   2.97154617746887      2.43226879114510     -0.61461089942903
  H   1.36308476394801     -4.34228831298302      1.08342957132464
  H   0.81682569794032     -4.16351373801312     -0.59325145712869
  H   -2.65355442116603     -3.26012706746175      1.63449194062302
  H   3.09752662549764     -4.59905710259962     -0.25879369859830
  H   3.58051725476740      3.20907234591901     -0.36842402701066
