24
Coordinates from ORCA-job 9944optt
  Br  7.49492241719163     -0.19477453995689     -1.42467005382818
  C   5.69478192644369     -0.85323491016181     -1.57649947364721
  C   4.99536424196405     -0.61994217774613     -2.75717877388895
  C   5.36171307737163      0.41805321217810     -3.75289630705797
  O   5.45798802524411     -0.07173534213529     -5.09185047752899
  C   4.28167443888591      0.10614075474420     -5.83334673042748
  C   3.05416689144543     -0.49452165142551     -5.20960353594732
  C   2.87222809216265     -1.02591142685057     -3.99052008878520
  N   3.69308858684409     -1.16411589087868     -2.88914262153645
  S   3.30313435744683     -2.55074591444713     -1.92422108401769
  O   1.86106238840497     -2.62880262768326     -1.88332105806255
  O   3.98841854881789     -3.63453066465419     -2.58673070169572
  C   3.94571981396476     -2.10779140812758     -0.44488446655091
  C   5.21340160004808     -1.50849568399971     -0.45042170623313
  C   4.05636496384028      1.53853511331394     -6.15989015063204
  C   3.85272692029591      2.68624544165878     -6.44384506977641
  H   6.33177427179484      0.83369308571427     -3.50187777694868
  H   4.63226361311720      1.24070323482189     -3.73730822291163
  H   4.46153591277842     -0.39882430015321     -6.78791335240266
  H   2.18466257488872     -0.50248124261651     -5.85533166981076
  H   1.89692444393129     -1.45310329951910     -3.79327915995934
  H   3.37975691172944     -2.40490323443762      0.42195906383976
  H   5.81582026789408     -1.51111582289240      0.44889986759690
  H   3.67250571349403      3.70565929525441     -6.68412644978732
