28
Coordinates from ORCA-job 9953optt
  Br  2.26396072764659      1.26120001228734      2.88439286223093
  C   2.79640506094208      0.83699259252313      1.07782853843690
  C   3.50683376935805      1.71375884253497      0.35871302219136
  C   3.48017927111529      3.20508025354499      0.47911302510853
  O   2.55042057069573      3.67400282814710     -0.49626097998817
  C   1.25318711170584      4.00342344300530     -0.05128846180801
  C   0.28683096609309      2.90201059789822      0.40059366250710
  C   -0.20793570873387      1.85872944346737     -0.62091264243660
  N   0.57380761637820      0.66692526408967     -0.89328684579738
  C   0.82813481999299     -0.29132939796805      0.20009487993891
  C   0.26144152496531     -1.61154838491106     -0.15298639249418
  N   -0.19014068362635     -2.63382077475902     -0.41251083795253
  C   2.32863454312671     -0.39050354396103      0.47711942208170
  C   3.15776008233742     -0.86097622288585     -0.57870301294472
  C   4.13550789888380     -0.05567203423140     -1.18419514539633
  O   4.96322143349609     -0.30568510060148     -2.04008176435405
  O   4.08924805637954      1.33497436298277     -0.80098507342719
  H   4.44685485148959      3.63466660442981      0.21280997910059
  H   3.19261565993879      3.52392304529831      1.48280512496630
  H   0.80419235540583      4.52781104665332     -0.89948969435071
  H   1.33457379388350      4.72509818333700      0.77478045297444
  H   -0.60131033689953      3.46225278240279      0.72050426743546
  H   0.65323825940600      2.41225153548835      1.29870571793488
  H   -0.36815283302426      2.35756930468970     -1.58259001166405
  H   -1.19505263079872      1.52351371847269     -0.28786095130258
  H   1.45397063493322      0.87477714920620     -1.35132600988552
  H   0.30177337493471      0.03772157048475      1.10305389056858
  H   2.98279980997429     -1.82614712162594     -1.03903702167368
