30
Coordinates from ORCA-job 9959optt
  Br  1.07928150997893      0.58175245885010     -2.43657340974248
  C   3.04466029646194      0.40303731568118     -0.73138372994129
  C   3.42966151591692     -0.94060022742252     -0.65997249780485
  C   2.43998300023143     -2.06505938031229     -0.53361872318479
  O   2.37130679244560     -2.63450253088237      0.77598503433010
  C   3.39066793938552     -3.53216923607495      1.12427464143211
  C   4.67943613118269     -2.85831667693325      1.63863155908257
  C   5.20291746380825     -3.54871509399739      2.89047993574157
  N   4.31457836549133     -3.31495417656292      4.00668667025985
  C   4.43084803807379     -3.94788938986658      5.20224866496368
  N   5.31890778099586     -4.77886673152090      5.58181024193671
  C   5.77595836168785     -2.83519587801861      0.57529765293057
  O   5.27056469657816     -2.43962290782489     -0.68442418110756
  C   4.79387159342194     -1.14945804333803     -0.70193490979551
  N   5.70270738418478     -0.18115495092418     -0.74629063675956
  C   5.20529863583294      1.04882922720323     -0.77935059531962
  N   3.92014891867855      1.38547041857393     -0.77828722185788
  H   2.66852704759317     -2.85725138218005     -1.25384602294975
  H   1.45180755740701     -1.66413901038721     -0.74605076449776
  H   3.63544118830794     -4.18638693462070      0.27721694394290
  H   2.97220357206300     -4.15666168646177      1.91824576528267
  H   4.42106889289943     -1.82598679709062      1.89630978412482
  H   6.21059943978220     -3.18973584402281      3.13165219106212
  H   5.28171265927152     -4.62907228961901      2.70677761096175
  H   3.52170713888069     -2.71304349606937      3.85669038009769
  H   3.64091637140747     -3.67887080081587      5.90331394665529
  H   6.00813239160087     -4.95250092509718      4.85147412125723
  H   6.17550743818740     -3.84208586134770      0.42868654599643
  H   6.59532716541222     -2.17346306203002      0.87454057926171
  H   5.92525071283045      1.86161389311282     -0.80858957635879
