25
Coordinates from ORCA-job 9962optt
  Br  1.17677970739281     -0.14824704987164      0.13970200439340
  C   3.04937761479637      0.04455249451555     -0.17950506485657
  C   3.65101802423426      1.34579306786920     -0.24670875662074
  C   5.07681237227968      1.29056121090935     -0.47174729015020
  O   5.78288756419294      2.45612941776869     -0.84647816238678
  C   6.65795651233989      3.08623163117204      0.05001466348692
  C   5.95736429102468      4.18569988854336      0.87984822087184
  C   4.63113116742775      3.60164107520598      1.30939748171732
  N   4.45566554123765      2.93805997496562      2.38171936955366
  N   3.66308172115755      3.70378896029828      0.34285999109900
  C   2.90240289199790      2.56186648077961     -0.13174600175388
  O   1.72750667817360      2.75418794973544     -0.46328805504461
  C   7.38566492348072      2.16481292386055      0.95657888108745
  N   8.05002973302908      1.55655863708990      1.66592388746545
  C   5.77974835191642      0.11589239104866     -0.56198615982081
  C   5.14794089965462     -1.12157243472297     -0.42012596453482
  C   3.76034071341089     -1.12816181451534     -0.24224072457861
  H   7.43471955045960      3.54670294838164     -0.56645749716313
  H   5.81096851618315      5.05437884700634      0.23584405618348
  H   6.57775281320780      4.47386266872036      1.72859611169431
  H   5.31668013736642      2.90446352437699      2.92249655103308
  H   3.83261401856358      4.39034941685510     -0.37700519061899
  H   6.83800846161571      0.16947828509814     -0.78898281919517
  H   5.70856273539625     -2.04436564831392     -0.46378041773781
  H   3.22798505946056     -2.06466484677699     -0.14092911412380
