24
Coordinates from ORCA-job 9963optt
  Br  1.03669614386644      0.36481256284576     -0.15531892248552
  C   2.94431013785633      0.16803185658172     -0.02885667020136
  C   3.56245342607638     -1.11745204960479     -0.22031460195640
  C   2.89310150336345     -2.34855492243242     -0.50097502156124
  O   1.69030847750316     -2.51022891282629     -0.74757390177487
  C   3.75189518923720     -3.63129515537550     -0.52153570013605
  C   2.94827934982861     -4.73836377147265      0.16403390660025
  C   3.63920224800294     -6.02261841477265      0.08562136989887
  N   4.21955605572141     -7.01014943690015      0.01352577516809
  N   5.03218589563442     -3.47801306699456      0.14423023501842
  C   5.75800377506010     -2.33988758529387     -0.39848672700988
  C   4.99582299113236     -1.08028229655568     -0.11811318152241
  C   5.64805578794196      0.08024032613773      0.17715790710461
  C   4.90846215726992      1.26505124201066      0.36224396681545
  N   3.55323359408032      1.26929327588396      0.24179740811643
  C   5.56107249588920      2.48580553255408      0.67597031057297
  N   6.14485834546921      3.45022004930943      0.92863865394942
  H   3.87182124576841     -3.90430636678509     -1.58458072016783
  H   1.96905487137968     -4.80869926131206     -0.30690866631441
  H   2.80972029754098     -4.47840037624262      1.21487784848842
  H   5.57735587062623     -4.32670150846057      0.03592511860617
  H   5.89838889694080     -2.43535360298293     -1.48985865961362
  H   6.74527233152929     -2.28689882089767      0.06112309887391
  H   6.72788891228116      0.10275070358619      0.26137717353058
