25
Coordinates from ORCA-job 9967optt
  Br  2.49296303785150      0.86613664197741     -1.70497980697422
  C   3.92053673005138      0.41057621415986     -0.53586267076502
  C   4.83547020016427      1.36660744165656      0.00758901146516
  C   5.92740754133681      0.90825421631711      0.71419585406472
  O   6.25689280316241     -0.42644649425002      0.75286991016594
  C   5.41991697957890     -1.32933283209338      0.14783963412531
  C   5.91424545790894     -2.71865465576497      0.31074219365555
  C   5.69041501380998     -3.33060048458931      1.68058305349624
  O   4.91260573132871     -2.93468869175287      2.49825719549520
  C   4.26967018440055     -0.94669194230153     -0.45945617958683
  C   6.85974118112879      1.86007205381446      1.26507091861407
  C   7.61420703360400      2.21903162604600      0.06912576975070
  N   7.23567308837792      3.15236387698949     -0.73524750049272
  C   5.96746126101904      3.72440633362785     -0.48870511205917
  N   5.76236979543480      4.96861839548048     -0.65249399500393
  C   4.72819964540408      2.84951602266704     -0.15487035467881
  N   3.61890720966099      3.46640019570890     -0.06496654229522
  H   6.98899037323623     -2.77032003643692      0.10228513109522
  H   5.42481740805501     -3.38854152385433     -0.40446355159807
  H   6.30236944097019     -4.23576134963729      1.88382034263401
  H   3.64007830542223     -1.70543732874742     -0.90371018077389
  H   6.30640437609995      2.73201939872077      1.61002334117054
  H   8.47847393820641      1.63000710484994     -0.24802990862435
  H   6.66153955784990      5.38658786996829     -0.89635289108934
  H   2.87564370593684      2.80487794744386      0.15673633820889
