24
Coordinates from ORCA-job 9970optt
  Br  1.16445565829681     -0.18186108843348     -0.31903111161707
  C   3.04977380874820     -0.24755750787798     -0.13562919925380
  C   3.79191366693674     -1.38312167937241      0.00228721452956
  C   3.19192091462116     -2.72500818383049     -0.00821608352032
  O   2.02364445392590     -2.99186029678261      0.17248046179401
  C   4.18651795482377     -3.84539798113742     -0.31093824491071
  C   5.43042356009669     -3.70418227559969      0.53801802619763
  C   6.09327132955714     -2.34841597124700      0.33861309856023
  O   7.32917146251198     -2.27468497675861      0.43266008020384
  C   5.24417481944027     -1.22437376658537      0.08097619900897
  C   5.80836618756089      0.05988671180857     -0.04111484474692
  C   5.03190259529144      1.22037903232881     -0.19087290501474
  O   5.37502254958172      2.39685120616971     -0.30406122675829
  N   3.61695967470234      0.97626784739168     -0.20278435475757
  O   3.61241073925754     -5.12302904703286     -0.07667173915999
  C   2.66327258908591     -5.53493564736103     -0.93604542585853
  N   2.09036034321049     -6.65335977599023     -0.87347246012025
  H   4.46472605384623     -3.75561632739693     -1.36944306024552
  H   6.15151948561342     -4.47959281066660      0.28254510461324
  H   5.15768979808004     -3.83562268426339      1.59064665786294
  H   6.88079317349708      0.16774286134719      0.01247832633628
  H   3.04450278846501      1.79639418095468     -0.32579103113315
  H   2.42793033730208     -4.82915255112911     -1.73122975573551
  H   2.43127605554706     -7.16974926853540     -0.06140372627432
