27
Coordinates from ORCA-job 9978optt
  Br  0.86644416570704     -0.12846097714850      0.04871801510058
  C   2.82770613184356     -0.08723841922232      0.19463850991767
  C   3.51284278746462     -1.27316944548460      0.43862539054123
  C   2.82528625111215     -2.56486381697281      0.72794362358294
  O   3.06389026259584     -3.62831379470720     -0.19762848347784
  C   4.31294704709106     -4.28409667834182     -0.11892880919864
  C   5.50716075729347     -3.44323125495801     -0.54337911356819
  C   5.88512816662745     -2.31191524287107      0.41016872092102
  O   6.05172804417351     -2.99266005101954      1.70856576066593
  C   6.55634878403968     -2.25706207011507      2.70583522851815
  N   6.63105045752907     -2.63097684833348      3.90681968626580
  C   4.96531816198254     -1.15126585445704      0.43764997778216
  C   5.48523380117414      0.15000751369124      0.33580213146286
  C   4.67044946952013      1.23519868721125      0.16634060719618
  N   3.29944719454847      1.11391434891149      0.04025641603076
  C   3.06721462893195     -3.04494368902875      2.11716029590351
  N   3.18780781845476     -3.40969958342326      3.19905309707699
  H   1.75145587051595     -2.40328691989589      0.66839946304774
  H   4.21975346090890     -5.13296731291417     -0.79826985389839
  H   4.47538415091139     -4.67452382377035      0.89111004780571
  H   5.31833418718754     -3.01211570653598     -1.52886503071560
  H   6.36216915296346     -4.12145608685462     -0.62301702417189
  H   6.87918689059140     -1.94506961205359      0.13412681279984
  H   6.93332777960701     -1.27820020376124      2.40788680176035
  H   6.17480452021462     -3.53933916461652      4.00875508261057
  H   6.56092685870519      0.29942156352946      0.37057677151603
  H   5.06565319830500      2.24031444314247      0.09765587452450
