28
Coordinates from ORCA-job 9980optt
  Br  1.73478581070666      1.59333913522699     -0.72025780848751
  C   3.34719044200480      0.55507625793242     -0.50237107642312
  C   3.33537974611249     -0.80740640837670     -0.61043315346143
  C   2.11016269003256     -1.68611672643203     -0.55082242608952
  O   2.03007617125567     -2.33608105221350      0.72283112516177
  C   2.56375742822644     -3.64215205800767      0.88964600517053
  C   3.98424856190822     -3.67964306685340      1.48619848594245
  C   5.13546887756891     -3.71082852878902      0.46723730117209
  O   5.34009413432359     -5.08686648668646      0.11365523930777
  C   6.12634534402040     -5.33134092303019     -0.94380365556471
  N   6.44450608165928     -6.48917700603351     -1.33311304464390
  C   4.68389736454156     -2.86500404699617     -0.71328751583974
  O   4.10500233790831     -3.42930542942486     -1.66611251215007
  C   4.60733433733077     -1.46011236974983     -0.42999569380998
  N   5.66604133084348     -0.82217174305331      0.14558531224832
  C   5.59292463831888      0.48673939951225      0.25911470103027
  C   4.49968935199415      1.26311274645199     -0.14140706410402
  H   2.11964288346506     -2.43097476594824     -1.34707146233703
  H   1.21030317245698     -1.07880233427225     -0.62758076121184
  H   2.53315754294149     -4.19385244645756     -0.05410558431031
  H   1.88861954956289     -4.13001398145668      1.59712632703068
  H   4.08097384682516     -4.55813731993527      2.13094850141122
  H   4.10023892319814     -2.79119960506838      2.10973084794073
  H   6.04621657302674     -3.31521983268958      0.92043361344574
  H   6.50124300286530     -4.44738571989043     -1.45559082791003
  H   5.98810850732300     -7.18313764820041     -0.73902493324067
  H   6.45915885674560      0.98106976560900      0.69279886074723
  H   4.51643249283334      2.34059219483288     -0.08832880102492
