30
Coordinates from ORCA-job 9985optt
  Br  1.64586144688400      1.44381677841592     -1.31137311280766
  C   2.93556606262416      0.34470177856777     -0.37923295597990
  C   2.79612909663702     -1.04626653193697     -0.42904923994783
  C   1.69850849415611     -1.70729717266631     -1.17829883781093
  O   0.41908940608463     -1.81909186773121     -0.49429315465800
  C   0.44342490891145     -2.05399232338793      0.89363060242428
  C   0.38000727780336     -3.53619713377107      1.23289918353579
  C   1.55364092524587     -4.32626106084522      0.68002638683982
  O   2.77425875750188     -3.91668475866736      1.26852225738689
  C   3.80030549197646     -3.27047284896080      0.53438718086156
  O   3.88581777915521     -3.95705033427109     -0.77891315383686
  C   4.56644581055693     -5.08531766718522     -0.83538689690762
  O   5.11808040046007     -5.65490832497600      0.06718987146554
  C   3.77633724219529     -1.80403645346522      0.35749958395593
  C   4.81067057668207     -1.10131771734270      0.99405545432377
  C   4.92121031948918      0.26879334492964      0.97196133911668
  C   3.92350745772342      1.03488115313467      0.28148295850707
  H   2.01377389868137     -2.70165168757166     -1.49619595241145
  H   1.44617694336680     -1.14277516870702     -2.07470320162997
  H   1.33060712806062     -1.60608149470775      1.34984902527909
  H   -0.43290295738376     -1.55081203667176      1.31212844309725
  H   -0.54360610877340     -3.96120759621606      0.82703528408381
  H   0.35350516772079     -3.65459906604372      2.32089474380269
  H   1.42909383775435     -5.38766228332635      0.92147464323906
  H   1.58393086870861     -4.24591752650519     -0.40494607322427
  H   4.70302607342350     -3.53896339255587      1.07728265537547
  H   4.58276563600951     -5.45207358771993     -1.87308806644985
  H   5.55311550735833     -1.67508511026221      1.54229182349262
  H   5.73504673458770      0.76627825853891      1.48249055191804
  H   3.94260581639841      2.11425183190779      0.27037865695896
