27
Coordinates from ORCA-job 9991optt
  Br  1.85833764479320     -2.07065562987252     -0.87639343516730
  C   3.66227428729350     -1.49882235718040     -0.51154528114807
  C   4.19963851612197     -1.52621330070929      0.71664117945239
  C   5.60857443870222     -1.02841560779029      0.89428263842946
  O   6.05862348819688     -0.89908951772171      2.05287855927068
  C   6.34094127320720     -0.89267903913842     -0.30971420658954
  C   5.78562870744638     -1.15115237267968     -1.58775502723870
  N   4.35192233712747     -1.11874620959973     -1.61755196096557
  N   6.34746255012108     -2.23346829636350     -2.39286441832684
  C   5.87190708577212     -3.51742742069723     -2.04677176198192
  O   5.40358187623947     -4.29309918891356     -2.86413887336715
  N   5.98393794811396     -3.78665022116000     -0.71643626051240
  C   5.01904875262482     -4.60089384663399      0.00572790980551
  C   5.00666895826762     -4.20659189432939      1.50179883669112
  N   3.79752015276252     -3.55041062165811      1.98134369866112
  C   3.52024510548588     -2.20161479714958      1.85379633941530
  N   2.68526219572827     -1.67167886699205      2.65775200898842
  H   7.41727213926179     -0.79590945441604     -0.22248997003560
  H   3.87660424821347     -1.15426972614061     -2.50374109645464
  H   6.23981938980218     -2.11147760648515     -3.39148883745327
  H   6.36021699580628     -3.01131793960266     -0.18680363428793
  H   5.27592857667950     -5.65747784289794     -0.09815986046526
  H   4.01881852753900     -4.46518822964201     -0.41450158462761
  H   5.09887992289374     -5.11424509339109      2.09743908207170
  H   5.88816251728641     -3.59639891449884      1.72816021144526
  H   3.41395647618285     -3.92189471504101      2.83694529105915
  H   2.55876588832993     -0.69521128929506      2.41059045333167
