27
Coordinates from ORCA-job 9994optt
  Br  1.19905025123191      0.05438907398554     -0.42716428147770
  C   3.13439659464221     -0.01378835579242     -0.24286121101885
  C   3.71444629555133     -1.23438037570214     -0.00401987195254
  C   2.94340881202837     -2.47545549161482      0.26603867661065
  O   3.66260334842920     -3.68464206244830     -0.00240769546013
  C   4.94743611520897     -3.65698697411876      0.59131083793847
  C   5.77446446586710     -2.50908765832034      0.05467192202454
  N   5.10874303096094     -1.24648393156982      0.27763414811030
  C   5.85555978294342     -0.05058309814135      0.10334805092510
  N   7.15267834558895      0.01171432820879      0.16938433200854
  C   5.08122723274414      1.11821365143391     -0.15111729606083
  N   3.74197321226631      1.14160333272282     -0.31885212013171
  C   2.43771462357293     -2.63644777470165      1.70971982306711
  O   2.94378677446530     -2.11898206243430      2.66966191623781
  C   1.24745720559604     -3.58323690086705      1.85708696087282
  C   1.59139760550847     -5.00253491776627      1.47579368596915
  O   0.89738733411717     -5.70443290760874      0.79270498066649
  H   2.07231575516352     -2.50373818559077     -0.38662137528688
  H   5.41946185684634     -4.60904571617154      0.34851327256342
  H   4.86263028537107     -3.56825999214096      1.68145190649709
  H   5.96691293154914     -2.66640104052961     -1.01786922330376
  H   6.72732101916387     -2.52209453180413      0.58297631809959
  H   7.57698733318345     -0.88597997039489      0.36546565048348
  H   5.62128897430636      2.05093682910065     -0.22710598323778
  H   0.40881573192726     -3.24659295628944      1.24604851577179
  H   0.96404678707286     -3.58223648308058      2.91265916380095
  H   2.53248829469323     -5.39146582836378      1.90854889628285
