24
Coordinates from ORCA-job 9998optt
  Br  1.09989002977500     -0.08917696692484      0.17602199031592
  C   2.99433870557944     -0.17848337262771     -0.40973770353574
  C   3.70075015390781     -1.33288336840833     -0.10557278355441
  C   3.26642360479963     -2.76103316462582     -0.08351492908851
  O   4.45515684589511     -3.49026564841538      0.25732218214911
  C   5.58725024328860     -2.63813126791306      0.24614453655942
  C   6.46346510872035     -2.96539448094544     -0.96504092573474
  N   6.85206648053091     -4.36773625426003     -0.96939772640090
  N   7.59290328667372     -4.91423790874482     -0.03057844789507
  C   7.60584819364377     -6.18021853139013     -0.40799979032230
  N   6.89786411125701     -6.38581254481576     -1.52950127850703
  N   6.42402843501774     -5.21857345354747     -1.86554428424582
  C   5.05019367909675     -1.24146044743902      0.14710884443237
  C   5.72128991365013     -0.02197843740208      0.22493374706120
  C   4.98548660143649      1.17633836616959      0.04254964582562
  O   5.36817540908379      2.32297557765775      0.13448548756567
  O   3.61892962028139      1.02381491495892     -0.31825991759276
  H   2.88770658135509     -3.10981640756643     -1.05071500881757
  H   2.50424430198701     -2.96350675447843      0.67396417264441
  H   6.16845265469988     -2.81790797216029      1.15620750656303
  H   7.36480640613317     -2.35305518305100     -0.96000927745289
  H   5.90648422899172     -2.80142715864756     -1.88507476531599
  H   8.12649968055452     -6.95497799114111      0.12706164897277
  H   6.76774572364078      0.07294845571853      0.47314707637421
