21
Coordinates from ORCA-job 9999optt
  Br  0.96097327542198     -0.27957198001675      0.02588741253236
  C   2.81733959831463      0.00621545763016      0.02304057668230
  C   3.46580066285149      1.23069467639518      0.02163560998770
  C   2.76663641789956      2.54610021999019      0.02101800031786
  O   1.53396773884426      2.64454554616291      0.02168178338110
  C   3.65928780657521      3.66098618254872      0.01962340011560
  C   5.03191297997608      3.51594750983295      0.01878424813648
  N   5.67776664909925      2.34774404059911      0.01915295029940
  C   4.89687841748547      1.25766067826704      0.02053744660544
  C   5.57379945109108     -0.00832299817270      0.02091457532569
  C   4.89329575719720     -1.19088573514071      0.02207184893645
  N   3.53418319890878     -1.17949749421831      0.02305454616367
  C   5.62588457799484     -2.42949717180230      0.02213967174067
  O   5.05466553280474     -3.52093294520453      0.02290168055065
  N   7.02135180006650     -2.32571348795334      0.02117478739002
  N   7.63385048033236     -1.20973290407083      0.02024764553931
  N   6.92391434763152     -0.08158045726789      0.02010264906121
  H   3.21164794505188      4.64629662476028      0.01914188517955
  H   5.66178413716902      4.40170620933407      0.01777536481991
  H   3.07115232722358     -2.07790999914494      0.02390035521013
  H   7.43990689806055      0.78874802747168      0.01921356202448
