31
Coordinates from ORCA-job 103optt
  C   -3.25636472198599     -1.46170588458815     -1.64513483628765
  C   -2.22424152487674     -2.33551529115578     -1.21808960537057
  C   -3.25211057854315     -0.28361089510288     -0.97165817961255
  C   -1.44270233589548     -1.83122878103545     -0.23338264632759
  S   -1.96681142675356     -0.24640704635420      0.19946723068669
  C   -2.25501510880151     -3.62804780370402     -1.98158892609890
  C   -4.09597013411936     -2.05342145134242     -2.73570598463745
  N   -3.42036425038086     -3.37404153466736     -2.87293708195134
  O   -3.80801591576654     -4.22900885676084     -3.70792358903827
  C   -1.00927370090210     -3.85601807402269     -2.83342960132515
  C   -2.54793723509225     -4.84102447667337     -1.10317228075526
  C   -5.55303351391201     -2.26793873808335     -2.33515067865890
  C   -3.99974399318672     -1.29515936196342     -4.05709307692279
  H   -3.43128380920760     -4.66491675018256     -0.48946784108735
  H   -1.69918796658853     -5.03792784912631     -0.44716271693825
  H   -2.72163802769227     -5.71199889844135     -1.73514082596976
  H   -0.80136972089430     -2.98180071585293     -3.45026021377835
  H   -1.16695809046164     -4.71863631897384     -3.48090167904850
  H   -0.14880239115221     -4.04341478951848     -2.19005070956118
  H   -5.61500427003954     -2.81395818246849     -1.39373857925267
  H   -6.06256476362183     -2.83953804736230     -3.11096657683442
  H   -6.04594250360651     -1.30286273020798     -2.21524056748450
  H   -2.95702008974526     -1.14967730008131     -4.33965654720675
  H   -4.47620122035856     -0.31973269171447     -3.95565975994327
  H   -4.50332235881684     -1.86337671786647     -4.83923726341603
  O   -4.11721870345111      0.72776806247069     -1.16636351982440
  C   -3.93564715132952      1.88822308975266     -0.37645251688566
  H   -4.03852236859768      1.65141418863723      0.68580151357265
  H   -0.59751641988264     -2.27035595405174      0.27049405257090
  H   -4.71174892010448      2.58768456472042     -0.67244568467530
  H   -2.95218678423314      2.32893523572124     -0.55958130793736
