28
Coordinates from ORCA-job 10optt
  C   -3.23043257587354      1.34167770938984     -0.72103703736891
  C   -3.08046552539713     -0.02594604783448     -0.94175611958045
  C   -2.18353473269065      1.87870638753780      0.21326704907778
  C   -1.91364340114915     -0.59326361217600     -0.18424496078500
  N   -1.42153849759013      0.63637688869839      0.48003999046514
  O   -0.41549597655895      0.62460648585131      1.23389408012849
  C   -2.34169675124715     -1.61954404238469      0.86041827308031
  H   -2.73854439513981     -2.50343557816633      0.36128793251713
  H   -3.11170831820281     -1.20795116470495      1.51370973891346
  H   -1.47844230869509     -1.89778812586319      1.46432348831973
  C   -0.83873245816060     -1.15968823512946     -1.10610320978186
  H   -1.22777364728936     -2.03751373450718     -1.62173596199006
  H   0.03128728290842     -1.44003006909023     -0.51303274798240
  H   -0.53650615556525     -0.41961368231790     -1.84767003790240
  C   -2.78128225820199      2.41715237145714      1.50952646011176
  H   -3.42451253522271      1.67144536727285      1.97779694726520
  H   -3.37198054283910      3.30775319092374      1.29559099691675
  H   -1.97531479389919      2.66987224456889      2.19796310656504
  C   -1.28405995726395      2.91525010375428     -0.45224360131793
  H   -1.86593117974434      3.80806868539882     -0.68044698206046
  H   -0.86134545763907      2.52294775249323     -1.37766373187220
  H   -0.47076033456939      3.17227785287388      0.22584053924056
  N   -3.88586203952368     -0.71323557901976     -1.72815267598801
  N   -4.18957391799361      2.05268841849704     -1.28147367078065
  C   -4.85827399942179     -0.00019887674292     -2.29935081723596
  C   -5.00808632618664      1.36409061323028     -2.07897204631260
  H   -5.54037487220534     -0.52948659285455     -2.95352718061455
  H   -5.80868432463790      1.91388126884413     -2.55874782102785
