30
Coordinates from ORCA-job 114optt
  C   -3.99710409036270      1.21327168967558     -0.75176407267723
  C   -3.37091793905861     -0.11655602883057     -1.22736440346736
  C   -2.86401924273008      1.89923720008103      0.04262933416937
  C   -2.35531258041645     -0.54425303189538     -0.14858938738463
  N   -2.16066627556577      0.72396854645957      0.59404912595387
  O   -1.22959790833319      0.85878772516832      1.42864668013481
  C   -2.83167691881313     -1.60672957721013      0.84108720746134
  H   -2.82342854535161     -2.59523242231567      0.38056538655099
  H   -3.83340669058153     -1.39542272159930      1.21028907220611
  H   -2.13562026853275     -1.61781537224187      1.68003724198688
  C   -1.02648167010509     -0.97695527238538     -0.76382545847784
  H   -1.17532620428446     -1.87300983825976     -1.36897559702729
  H   -0.30762577092632     -1.19776926426676      0.02405096305572
  H   -0.61387717298733     -0.19156182656546     -1.39868822455805
  C   -3.31023634038885      2.79130106910628      1.19345272490603
  H   -3.89800459079957      2.23509389741307      1.92458417080824
  H   -3.90016602131534      3.62960777498555      0.82039339510126
  H   -2.42868881692744      3.18010685111684      1.70076097214208
  C   -1.92060689270738      2.66998040972377     -0.88254274601575
  H   -2.39899094818736      3.58837249317437     -1.22538099065114
  H   -1.64147358025257      2.07947417892371     -1.75594600261889
  H   -1.01497552547026      2.92732508408804     -0.33303131769241
  C   -4.41921355933526     -1.12295026750659     -1.65997030135895
  H   -2.81987414453852      0.11055559835676     -2.14397989227722
  C   -5.24025432479250      1.02007987931052      0.08270873409194
  H   -4.28767534041864      1.83591319837963     -1.60206758302635
  O   -5.15134809280451     -0.89542811883550     -2.58328033287153
  O   -5.65666626792412     -0.04751794783165      0.43846653470180
  H   -5.77651025085490      1.94706025272826      0.35400742242462
  H   -4.46823402523360     -2.08202415894730     -1.11976265559042
