38
Coordinates from ORCA-job 115optt
  C   -3.81989117666580      1.09788427620527     -0.56698862523362
  C   -3.26895601243741     -0.34933200624017     -0.69973782548182
  C   -2.57053961439332      2.01248327186944     -0.38045506357329
  C   -1.85205668494134     -0.35680377918190     -0.09390768119224
  N   -1.45887549476196      1.03886352878587     -0.38451297554749
  O   -0.27351446106600      1.43132933760363     -0.23142323629120
  C   -1.74020405609815     -0.59021877654289      1.41660777141362
  H   -1.79838482052812     -1.65125786560242      1.64023102910246
  H   -2.52851846707582     -0.08517906760704      1.96930114907700
  H   -0.77063630855194     -0.20371490584276      1.73345950064020
  C   -0.91986243587738     -1.30486589390331     -0.83130234140562
  H   -1.26269586406226     -2.32926488740344     -0.68545827859824
  H   0.09033114878516     -1.20680377870562     -0.43634518998576
  H   -0.89483844421901     -1.07698603378499     -1.89800159103522
  C   -2.54873586351611      2.81012660002034      0.92377819459907
  H   -2.66929346245217      2.16521342669126      1.79392375391782
  H   -3.34542488771095      3.55469646621461      0.92160137160954
  H   -1.58752532975816      3.31636897777990      1.00184068180540
  C   -2.39471948349680      2.95514023009490     -1.56487324265005
  H   -3.20646451099925      3.68329256635797     -1.58257281267874
  H   -2.39647878985388      2.39776556235594     -2.50308208443219
  H   -1.44374121856039      3.47888238271962     -1.47451468014127
  C   -4.16653124309065     -1.48284833264487     -0.23007313271942
  H   -3.13043443419585     -0.51437626360352     -1.77433882100742
  C   -4.87575434975656      1.33475415039720      0.49143926864076
  H   -4.30674567558515      1.39748300137707     -1.49186737249358
  O   -3.79674453435914     -2.35781211685515      0.49367101417835
  O   -5.72810548678485      2.17568280657591      0.38803953813159
  O   -4.76450832479672      0.52422414394415      1.54232862783888
  O   -5.43313369529745     -1.53037246330338     -0.69269107163643
  C   -5.74947126521560      0.68728396088996      2.56528305872908
  C   -5.91589764492140     -0.72908732122095     -1.76318239993485
  H   -6.74246607827162      0.51395914644887      2.15436997565228
  H   -5.69971624899183      1.69534237583800      2.97370351034573
  H   -5.51237840097208     -0.05286029941587      3.32254984055319
  H   -5.15928613271235     -0.58050371534151     -2.53405494452524
  H   -6.27905347234949      0.23404892125416     -1.40378378118371
  H   -6.74699677445760     -1.28195762622437     -2.19302113448756
