35
Coordinates from ORCA-job 116optt
  C   -3.73279781082945      1.44355142583556     -0.92571509949810
  C   -3.28193530673482     -0.01583493257329     -1.20955528450157
  C   -2.45966442812295      2.08205594140691     -0.30464366240975
  C   -2.21194983321196     -0.39546873964834     -0.14975596223605
  N   -1.85966074723134      0.93136872940987      0.39680146574693
  O   -0.86614186631613      1.07811541257595      1.15456444480570
  C   -2.66378335316202     -1.29842952565172      0.99589550623279
  H   -2.94234557887829     -2.28283087403721      0.61782109779622
  H   -3.49793371794078     -0.87332673187599      1.54905867544377
  H   -1.82729461270475     -1.41163435846280      1.68501113001729
  C   -0.99449049397533     -1.02424371713834     -0.82551426746194
  H   -1.28712534234934     -1.96069379045068     -1.30290444908858
  H   -0.22237506269233     -1.22289453163393     -0.08380220868462
  H   -0.58258545805927     -0.35999391110891     -1.58562615812286
  C   -2.70987079912184      3.20723370625594      0.68854195692129
  H   -3.29554624235341      2.86197842019826      1.54080180186509
  H   -3.23700531423246      4.02664125262168      0.19979789784416
  H   -1.75357150559446      3.56771037908987      1.06372981721712
  C   -1.50867417627921      2.56645119782919     -1.40306456895303
  H   -1.89954078446801      3.47751837871628     -1.85722583192631
  H   -1.37544588502422      1.82000451693292     -2.18637427367802
  H   -0.53669149448725      2.78103319755596     -0.95873499259397
  C   -4.31586750716952     -1.10876681611076     -1.45689724862784
  H   -2.76286679523168      0.03456266162873     -2.16499851047413
  C   -4.93627409464146      1.71933485417491     -0.05396054122751
  H   -3.96638042757107      1.94069265401922     -1.86547566898214
  O   -4.23876899863971     -1.82544370252915     -2.41134762068532
  O   -5.73886561901680      2.57617154722203     -0.27880510260191
  O   -4.98906625702520      0.95209945057778      1.05839793523440
  O   -5.29667192122505     -1.27416508644135     -0.56123848455245
  C   -6.04355342976312      1.27577183061379      1.97621318963362
  H   -7.01082561947776      1.15452039506883      1.49250770548988
  H   -5.93412918841803      2.30580136409253      2.30990108520286
  H   -5.93344446853759      0.58643988784839      2.80747695691610
  H   -5.18799585951329     -0.67148048601215      0.19006926993891
