28
Coordinates from ORCA-job 11optt
  C   -3.21050260442342      1.33227889807418     -0.70501941352289
  C   -3.06319914641880     -0.01840878664306     -0.92301502110454
  C   -2.16573817996726      1.87615894846561      0.22662799291559
  C   -1.89681530641819     -0.59204325496046     -0.17047065068155
  N   -1.39683492943285      0.63661679174043      0.49261548122344
  O   -0.39103062651554      0.62488218138456      1.24513170703038
  C   -2.31314593049010     -1.61217255963416      0.88666312998931
  H   -2.68176863246456     -2.52021570602542      0.40815794533175
  H   -3.09817257870260     -1.20787545936713      1.52584294293664
  H   -1.44819694364150     -1.85991630143424      1.50169149021079
  C   -0.81455818438675     -1.15888173889723     -1.08531578656873
  H   -1.17620409551086     -2.06065242056864     -1.58063243648267
  H   0.06191712621465     -1.40827702929111     -0.48759894078234
  H   -0.52972376936289     -0.43011614575562     -1.84422672906748
  C   -2.75071231284514      2.40767880196027      1.53300567804110
  H   -3.40819235465744      1.66865567578985      1.99109089422418
  H   -3.32104423680117      3.31827009977246      1.34606652829418
  H   -1.93642460743146      2.63241132540051      2.22166115394295
  C   -1.25934570188010      2.91265875245445     -0.43213691860848
  H   -1.81930263098073      3.82695650056244     -0.63185451200170
  H   -0.85762115489928      2.53315402943748     -1.37169512266006
  H   -0.43252980778668      3.14100283139360      0.24011140568108
  C   -3.97281293839516     -0.63248477420922     -1.77107440611173
  C   -4.25721218647483      1.97423600307376     -1.34961088063622
  N   -4.95598572860092      0.03678914006442     -2.36186841166465
  N   -5.09745484954342      1.33144128377797     -2.15233413251500
  H   -3.92981681927368     -1.69188725878113     -1.99813812546760
  H   -4.44573086890929      3.03573017221546     -1.23358486194573
