30
Coordinates from ORCA-job 125optt
  C   -1.58952239163794     -0.29647072418976     -0.28622164814878
  C   -1.59277424144549     -1.67575304354888     -0.10680947001029
  C   -0.19239729335574      0.21501068972825     -0.50679706412221
  C   -0.20753596839717     -2.25715632451947     -0.20800841766347
  N   0.56887510875886     -1.04258067637331     -0.54121861863866
  C   -0.06222609781395     -3.27780839193656     -1.33254722868692
  C   0.29208485834532     -2.83363530504145      1.11598995097246
  C   0.34581359535841      1.13646339821184      0.58258888355334
  C   -2.77137960170279      0.43790964259770     -0.25396746642553
  C   -2.77406758783171     -2.36015458527404      0.12382531191570
  C   -3.95425898650561     -0.26233531397587     -0.02514332105952
  C   -3.95976177566454     -1.63886554641669      0.16612564770066
  H   -4.89068854280939      0.28259801271867     -0.00256817232469
  H   -4.89739533312124     -2.15043611317251      0.34054856298656
  C   -2.78149957828620      1.92796097461278     -0.45457199570920
  H   -2.77551729991475     -3.43484192012506      0.26180569992224
  O   1.81757103997571     -1.06760332339174     -0.68868718542517
  H   -0.14085150089716      2.10999364547798      0.53951713238011
  H   1.41729351844868      1.27091137173506      0.43901618659109
  H   0.17118853291190      0.69964066754410      1.56679988787475
  H   -0.43226596586240     -2.86925180605143     -2.27267653727804
  H   -0.62810780035928     -4.17935393338391     -1.09468683948867
  H   0.98939413524721     -3.54014443880973     -1.44869352496271
  H   0.18269405572040     -2.10395909134699      1.91860161598044
  H   1.34470308978625     -3.10025959795915      1.02003168806016
  H   -0.28034869054070     -3.72537272356422      1.37455582801493
  H   -2.04006713579340      2.23511175180079     -1.19367794880350
  H   -2.55058679720904      2.44974742522377      0.47670037164897
  H   -3.76053546848886      2.26682083153566     -0.79062331584335
  H   -0.08424987691536      0.70433444789417     -1.48154801301064
