31
Coordinates from ORCA-job 132optt
  C   -0.89558977802536     -0.24964248933169     -0.27246106945362
  C   -1.25150274218214     -1.57160802231551     -0.06794917513993
  C   0.58301979721891     -0.11323664670571     -0.49942776874045
  C   -0.06347540513158     -2.49346924125922     -0.14260684135216
  N   1.02301093917993     -1.50649514313835     -0.34202817603580
  C   -0.11716279124351     -3.43909720236886     -1.34116539204304
  C   0.18767061972616     -3.26757903508472      1.14793155050005
  C   1.30652704411369      0.80327865583482      0.47566179501965
  C   -1.83773148343436      0.77102464063235     -0.24434251882756
  C   -2.58061274297017     -1.90049980505869      0.16735757356419
  C   -3.16733020506743      0.43431493111043     -0.00828408592415
  C   -3.53314444709997     -0.90009970428819      0.19607958505331
  H   -4.57649252420626     -1.11962183256358      0.37821231390125
  O   -4.18109771153025      1.33405169622765      0.04309506586217
  H   -2.87537840514627     -2.93064027888755      0.33027978092622
  O   2.22131978574427     -1.85240583085597     -0.50282649794443
  H   1.00989660611332      1.83967880302159      0.31167458982259
  H   2.38205710946320      0.71613403860608      0.32732723993103
  H   1.06390759157755      0.52567770166548      1.50197694830938
  H   -0.29139634349131     -2.88234406556477     -2.26209664733096
  H   -0.92588068846210     -4.15945053504520     -1.21080370376074
  H   0.82798184191553     -3.97577570186928     -1.42406345046387
  H   0.21513587291681     -2.59016622987584      2.00140739781630
  H   1.14173276555609     -3.79030555299211      1.07756994008246
  H   -0.60596661079090     -3.99924349862455      1.30556042213155
  C   -3.86328707450860      2.69438995482050     -0.14502634542879
  H   -4.79885115266726      3.24026934133683     -0.06089446081943
  H   -3.43050272761110      2.86625244265050     -1.13438965518143
  H   -3.16711140504233      3.04681434949769      0.62101468244495
  H   -1.53461949537374      1.79658652374578     -0.40318883772585
  H   0.80401376045922      0.20083773668012     -1.52658425919290
