31
Coordinates from ORCA-job 133optt
  C   -0.24594564139183      0.10567829530198     -0.28283299000194
  C   -1.00903706892224     -1.05396404819558     -0.15857142808737
  C   1.21679388570509     -0.21328376582889     -0.40175325239988
  C   -0.14869827037615     -2.28936110266458     -0.19692893060889
  N   1.19901598012655     -1.67595940588639     -0.24660483217852
  C   -0.37476230942017     -3.12212639444484     -1.45811470846200
  C   -0.26700780352439     -3.15167909188296      1.05512802731431
  C   2.11260359619158      0.43491567428235      0.64214351508206
  C   -0.86550313205073      1.33900754037722     -0.27043625955987
  C   -2.37933347262933     -0.99537039745085     -0.02588354652131
  C   -2.25009937193538      1.41859549335542     -0.13922475069080
  C   -3.00457670623842      0.25304975706780     -0.01716204534834
  O   -4.35433658682411      0.23332805719995      0.11746827074501
  H   -2.98881233606311     -1.88522638411015      0.07416892195928
  O   2.24264427266631     -2.37132541064571     -0.33994653290752
  H   2.15110848591983      1.51361420223112      0.48733520332538
  H   3.12076695384227      0.03030015172890      0.56214014863660
  H   1.72619532411369      0.23665162554162      1.64243024248488
  H   -0.28789919977439     -2.50067918570779     -2.34975801640195
  H   -1.37095518616154     -3.56557424015142     -1.43783269800843
  H   0.37034995674144     -3.91624712951039     -1.50517759658961
  H   -0.12392939920276     -2.54786933121819      1.95118952298586
  H   0.49285395106205     -3.93278941008026      1.02771224043761
  H   -1.25253307995554     -3.61698889508670      1.09798650244905
  C   -5.03496131876655      1.46781882774267      0.13384316435710
  H   -6.08924915832087      1.23168590450467      0.24852596774057
  H   -4.88499333638253      2.01451932211623     -0.80105069353770
  H   -4.70827028425524      2.08807986562108      0.97285472004456
  H   -0.28686022855996      2.25052854922994     -0.36144097593434
  H   -2.72592254633104      2.38792303755794     -0.13135896226328
  H   1.60125403071749      0.01553788900579     -1.40298822806054
