39
Coordinates from ORCA-job 152optt
  C   0.27949013017834      0.00884953708725     -0.04025120982353
  C   0.00950037625079     -1.35389726608956      0.07560071321591
  C   1.75652488343060      0.26992076752975      0.01239999580976
  C   1.27217033557714     -2.17813327487497      0.13760811319500
  N   2.28842343237852     -1.09660260301736      0.11649756445534
  C   1.49953555290673     -3.04522774664708     -1.11244666057972
  C   1.34800213246719     -2.97391892850587      1.45203727294560
  C   2.25361032420795      1.10944968883661      1.19196081668616
  C   -0.75409453781232      0.92616023212767     -0.17563280167053
  C   -1.29837413790954     -1.80522826874669      0.12922947900779
  C   -2.06352182379113      0.47383054895413     -0.15186980050997
  C   -2.33478064987706     -0.88171628660105      0.01418843272567
  O   3.52133907260702     -1.32252327332368     -0.00575410338097
  C   -3.75953525386360     -1.30107574596152      0.05678361593370
  O   -3.91452612295877     -2.62931954092978      0.21803367083824
  O   -4.69576297420458     -0.55539814200991     -0.04016970074201
  C   1.91267615454487      2.58939054584062      1.08687092771012
  H   0.84540246212651      2.76989434393832      1.21081612198075
  H   2.21853157361435      2.99539277185140      0.12033741431634
  H   2.42999577045362      3.15408141833102      1.86200633085305
  H   3.33621173714899      0.97346818925482      1.22490515680589
  H   1.84535286645671      0.68551664276054      2.11319362831957
  C   0.57356151192344     -4.24594868599894     -1.25023212809970
  H   0.85408087095940     -4.83105708327373     -2.12607951963219
  H   -0.46548452667251     -3.94391608832704     -1.38181307080196
  H   0.62992415258552     -4.90582651406876     -0.38334912510909
  H   2.54144810817150     -3.36800417622869     -1.08406571054444
  H   1.39867615782443     -2.39740896746911     -1.98703644385795
  C   2.58659523976023     -3.84622460799063      1.61498921299548
  H   0.44643417346298     -3.58926486733559      1.51702768210505
  H   1.28532518494318     -2.25328164652935      2.27143525512975
  H   2.62037570746409     -4.63842747735263      0.86594497817255
  H   2.58007269246740     -4.32013945058561      2.59675146377223
  H   3.49641855066538     -3.25620873017520      1.51959577115705
  H   -0.54739949112981      1.97933950503028     -0.30777778406806
  H   -2.89507798295948      1.15807895755979     -0.25437697900349
  H   -4.86700127238230     -2.79911706590586      0.23423194277158
  H   -1.52752508439937     -2.85323947894614      0.26378240797817
  H   2.12769470338355      0.71128276779265     -0.92036293105717
