39
Coordinates from ORCA-job 154optt
  C   -0.64977563101959     -0.90321450566305      0.15488297441287
  C   -0.25267092329211     -2.23751199226462      0.19873300375091
  C   0.54482646462448      0.00875451520502      0.16155753034233
  C   1.24529582063286     -2.38474591030134      0.08546651828775
  N   1.64396866005861     -0.95661514120399      0.00044723478072
  C   1.69913290145623     -3.06537543071808     -1.21677030495722
  C   1.83417501312137     -3.03937021645464      1.34731585063247
  C   0.68426174017627      0.78975103636267      1.47651632368006
  C   -2.00652548652303     -0.58010930875857      0.17542645215604
  C   -1.19124477822196     -3.24814568305295      0.34327694768567
  C   -2.94736417967688     -1.60376447467350      0.29214232719221
  C   -2.54170924068199     -2.92480127095989      0.39229095497023
  O   2.77771414822321     -0.59861059851530     -0.42135597043656
  C   -2.44795374470165      0.82893858520643      0.01332504407388
  O   -3.77423891637141      0.98795820096725      0.17890631118709
  O   -1.72863846938701      1.75411600905293     -0.25595102429846
  C   1.90085558731504      1.70456217359556      1.49574091146071
  H   1.84485179218088      2.43079381934267      0.68331897826943
  H   2.82357509070395      1.13972773023296      1.37263273111093
  H   1.94970499923637      2.25193238293782      2.43732239104763
  H   0.73522724429517      0.06408310505247      2.29346123730591
  H   -0.22409623205474      1.37548882366725      1.61598233656431
  C   1.45356401522431     -4.56586890508432     -1.29599021117274
  H   1.86839108116159     -4.95794172336276     -2.22467243655579
  H   0.39072084887620     -4.80719615357651     -1.29119843463905
  H   1.93025624448943     -5.10111694455463     -0.47353028186317
  H   2.76258640623868     -2.85090101441185     -1.32674733756718
  H   1.19634459288543     -2.56123151860624     -2.04566699412059
  C   3.35065949083259     -3.18249149457068      1.34016555168852
  H   1.36224245401179     -4.01840717595594      1.46947461408606
  H   1.51899048852407     -2.43917932367756      2.20457193547501
  H   3.68554968625728     -3.86383678296209      0.55700917025136
  H   3.69429062736774     -3.58005361606632      2.29521727436642
  H   3.83104940821481     -2.21946149635967      1.17145586151931
  H   -3.96255497971097      1.92534429686403      0.02976252925715
  H   -0.87967374892516     -4.28142724978670      0.42570288577306
  H   -3.28117825479257     -3.70672538670180      0.50066254140057
  H   -3.99864549161588     -1.35462591309022      0.30454417374584
  H   0.56657527086663      0.69974855284629     -0.68302960086373
