37
Coordinates from ORCA-job 161optt
  C   0.72053574744748      0.48372766947318      1.76566801469111
  C   -0.10543844293079     -0.23509619057180      0.91510517330187
  C   2.07850674942884     -0.14585353002630      1.86798806425010
  C   0.58131605769893     -1.46104747221971      0.35972664696074
  N   1.93491489160925     -1.27753924996877      0.93534917797857
  C   0.62287421475832     -1.40287234523965     -1.17827703064880
  C   -0.09182942205011     -2.74621243007165      0.90175308276547
  C   3.25453819259167      0.75091256256795      1.48304984992292
  C   0.25113923295979      1.63452197363235      2.38148137858611
  C   -1.40776306180321      0.17244035583607      0.67364188177291
  C   -1.04687963454792      2.05716558495479      2.14549735928791
  C   -1.87317168966521      1.32573324902779      1.29491161551885
  O   2.93153770956076     -1.95396899790514      0.56600223904181
  C   3.17154465226767      1.27850751394339      0.05783698544105
  H   2.23031227380930      1.80342700431648     -0.11719585823222
  H   3.24764354827431      0.45684547327154     -0.65525704824698
  H   3.98762510013201      1.97193500689062     -0.14352102924723
  H   4.17229983182215      0.17679553911691      1.61625047535681
  H   3.28209380888539      1.57616857929846      2.19949229139941
  C   1.13331561080028     -2.63865560416557     -1.90965684853611
  H   1.14357339369160     -2.44641166393225     -2.98315944678563
  H   0.48393306231560     -3.49802684982243     -1.73848657343486
  H   2.14234598718475     -2.89645761412168     -1.59471142883550
  H   1.21841260092148     -0.52950803999019     -1.45513965132401
  H   -0.39923364422555     -1.19424037416167     -1.50744179095703
  C   0.81768706190698     -3.95595725781025      1.09751725280689
  H   -0.91141660375966     -2.99334144433215      0.21964359302759
  H   -0.55387206647054     -2.50415259918466      1.86144806320152
  H   1.34454811365266     -4.23777757414772      0.18944961195470
  H   0.22148014084548     -4.80624403364779      1.43105817482887
  H   1.57217819769043     -3.75266114852686      1.85615892863173
  H   -2.05881203480792     -0.39194541396496      0.01332461939712
  H   0.89037322915961      2.20691950009696      3.04305432418310
  H   -1.44274418043863      2.95060935406358      2.60867877948182
  O   -3.13730801581729      1.79396064545872      1.10640308267320
  H   -3.61606950864642      1.21644852952825      0.50420906187275
  H   2.25843889574844     -0.54752870766577      2.87237697791336
