37
Coordinates from ORCA-job 162optt
  C   0.71113158061184      0.46779431103620      1.73170583624220
  C   -0.10699479709655     -0.25056968814007      0.86829118539483
  C   2.05937834566526     -0.17829307430952      1.85920331153710
  C   0.57715460468817     -1.48517943780404      0.32891124699421
  N   1.92318118461702     -1.30947148823243      0.92581180522193
  C   0.64619341901960     -1.43289044505730     -1.20818211550911
  C   -0.10974858655404     -2.76624161314339      0.86260110675977
  C   3.25093967410727      0.70789123966520      1.49891145591989
  C   0.27121602394486      1.62593278757146      2.34565827941373
  C   -1.39579139960295      0.18804125443018      0.61791041394488
  C   -1.02257079509739      2.06430588339520      2.08569924334415
  C   -1.85371974581088      1.34859788740893      1.22768297785995
  O   2.92235515595156     -1.99236986047807      0.57572914055671
  C   3.19796567792506      1.23956542359479      0.07375209248700
  H   2.26646413647051      1.77689153890729     -0.11536692179583
  H   3.27552024118226      0.41875318725158     -0.64006439473338
  H   4.02575736239615      1.92337528959657     -0.11192284206808
  H   4.15927686207356      0.12261253415970      1.64638062687704
  H   3.27465791897313      1.53064761503036      2.21805526341505
  C   1.15634189730319     -2.67481221197358     -1.92932312986583
  H   1.18658210617230     -2.48448439648469     -3.00283104693329
  H   0.49569374437893     -3.52747751397386     -1.76802382731249
  H   2.15744223561414     -2.94228629518867     -1.59733835056184
  H   1.25496476970653     -0.56603768094644     -1.47677383995549
  H   -0.36841439069407     -1.21440723014933     -1.55393867265136
  C   0.78773385120791     -3.98303239891743      1.07101411978203
  H   -0.92279457775750     -3.00765740762581      0.17065709139044
  H   -0.58222962141914     -2.52028338303424      1.81611934384658
  H   1.32389809847782     -4.27070681619944      0.17027123127637
  H   0.18088298698284     -4.82837688108339      1.39803355515809
  H   1.53423104614037     -3.78504447281099      1.83901100085246
  H   -2.05079353908381     -0.36185012359911     -0.04760710146289
  H   0.89938485020140      2.19925129676921      3.01570034555845
  O   -1.42818903104335      3.20901957427018      2.70093570709334
  H   -2.85984136120072      1.70458883902097      1.03696678883976
  H   -2.33338529173134      3.41452333331448      2.44838245924507
  H   2.21007536328004     -0.57695957627047      2.86958661383852
