40
Coordinates from ORCA-job 166optt
  C   0.81017567122123      0.42854276273071      1.81387706112345
  C   -0.04406611443748     -0.29081386593954      0.99816301632194
  C   2.17952954638618     -0.18273092766413      1.84904583911363
  C   0.63197928332928     -1.50194433132397      0.39767568097005
  N   2.00725321553504     -1.31078735775459      0.91709635188046
  C   0.60640958611379     -1.42285215329550     -1.13982793724763
  C   -0.00408675924806     -2.80142546132189      0.94979166481330
  C   3.32493190964888      0.73200372426008      1.41678672310173
  C   0.35251182604584      1.56821266500836      2.46428819748920
  C   -1.36771566605907      0.09288940698963      0.81751206600882
  C   -0.95844728820068      1.96853467427974      2.29234484008700
  C   -1.82128462115137      1.23351647789223      1.47273845041019
  O   2.99462193363930     -1.97273179266444      0.49926415957407
  C   3.17080717877249      1.26557140143216     -0.00020581332921
  H   2.21597436805902      1.77902762045403     -0.12952341176105
  H   3.22491839179741      0.44824824385145     -0.72024636095587
  H   3.96815307344004      1.97039589421370     -0.23454412865088
  H   4.25556433016523      0.17013927515602      1.50549739923516
  H   3.37320162769247      1.55401021747655      2.13590466580233
  C   1.09851179305332     -2.64213457644794     -1.91050786571144
  H   1.06223924726282     -2.43418142229084     -2.98053440147636
  H   0.46536513339756     -3.51074013780328     -1.72559078769988
  H   2.12231169356162     -2.89403579414606     -1.64161797111406
  H   1.17897719403373     -0.53860010367308     -1.43003895704495
  H   -0.43132907418488     -1.22172096240730     -1.42136602325875
  C   0.92390410936770     -4.00521421314189      1.08733942410191
  H   -0.85095022334911     -3.04664517516356      0.30109593384971
  H   -0.42541953134411     -2.57762330294764      1.93238339469901
  H   1.41120215845149     -4.26989177866922      0.15242940319984
  H   0.35098852218085     -4.86549343248832      1.43584065243317
  H   1.71055651366631     -3.80493039255128      1.81339046334228
  H   -2.02161009255136     -0.48819543473818      0.18169211625574
  H   1.01273498252425      2.14456924782602      3.10140199879674
  H   -1.34837875204744      2.85082346632290      2.78158176312238
  O   -3.08693070961409      1.71204321531076      1.37554741392962
  C   -3.99331981873650      1.01365961214715      0.55265802710188
  H   -4.93396160594359      1.55449650047744      0.60807275788632
  H   -4.14189111038605     -0.00991771667534      0.90751143807046
  H   -3.64805889195058      0.99050209544332     -0.48462512852525
  H   2.41082696985852     -0.58769616816421      2.84160788405491
