40
Coordinates from ORCA-job 167optt
  C   0.83862765484645      0.43556403498482      1.81317873747045
  C   -0.01804743828407     -0.30691150221138      1.01976833933314
  C   2.20370737809408     -0.18568121626548      1.85479521085316
  C   0.65441377228860     -1.51827537392791      0.41387856231869
  N   2.02720404764105     -1.33263117705468      0.95065302105062
  C   0.66130404621604     -1.42132200069440     -1.12516647256159
  C   0.01309502049379     -2.82767337469506      0.93653212887934
  C   3.35451802576896      0.71655067949509      1.41185515562564
  C   0.41600338296951      1.58790198258581      2.46308449831013
  C   -1.35168510803171      0.08323543520138      0.88461469280313
  C   -0.90129310794344      1.98202992351197      2.30464400756026
  C   -1.78668148606450      1.23954775981189      1.52613970243824
  O   3.01741940781264     -1.99414843788213      0.53900177394426
  C   3.20977117158240      1.22663221612159     -0.01461171291964
  H   2.25290596002507      1.73227081448840     -0.16016378171044
  H   3.27496237409247      0.39839806482914     -0.72082140080221
  H   4.00484371085944      1.93276642626023     -0.25277294842483
  H   4.28137249859271      0.15101005301618      1.51421947593071
  H   3.40346163504577      1.55005728449363      2.11730471598157
  C   1.16161327856324     -2.64122049635142     -1.89065148120005
  H   1.13935787962462     -2.43103684958247     -2.96078658803624
  H   0.52278715465797     -3.50798481849651     -1.71629083803346
  H   2.18102495786165     -2.89860433803083     -1.61042454897193
  H   1.25408498031553     -0.54368820455059     -1.39322312132108
  H   -0.36695997567006     -1.21038666624954     -1.42352586842425
  C   0.95401266593029     -4.01680175655558      1.10809484620721
  H   -0.80175954650393     -3.07924525586830      0.25414796404520
  H   -0.45281158031193     -2.61327782886023      1.90130039203821
  H   1.48053944291639     -4.26903718116717      0.19081193875478
  H   0.37995916334793     -4.88720465926125      1.42891271930946
  H   1.70947327645486     -3.81147348387526      1.86539403562668
  O   -2.14976496395118     -0.71365681757932      0.12912765052129
  H   1.09669141894767      2.16171368252764      3.07878048301412
  H   -1.26086517922215      2.87711648509199      2.79528329697954
  H   -2.81066306434146      1.56947713384166      1.43133251832463
  C   -3.50587470097461     -0.34967249847765     -0.00998827585476
  H   -3.96194394512511     -1.11190153643508     -0.63563074664158
  H   -3.60494357397774      0.62534625480927     -0.49383908956941
  H   -4.00855961253303     -0.32615170386316      0.96023340043020
  H   2.42508897798578     -0.56594105313523      2.85936760672078
