39
Coordinates from ORCA-job 168optt
  C   0.78808287505194      0.41276937071896      1.80745897523288
  C   -0.08227356590888     -0.29730018417570      0.98472637688684
  C   2.14253496353894     -0.22567404766497      1.86429124808327
  C   0.59803457151436     -1.52195393279840      0.39020659170258
  N   1.96775850177315     -1.34823853593720      0.93572172874786
  C   0.63661822819469     -1.44680614671515     -1.14882164244667
  C   -0.04216832104643     -2.83849223951115      0.90861111234986
  C   3.31212825836001      0.66899581732383      1.45473908802885
  C   0.39046919686847      1.56252158314269      2.46791005344116
  C   -1.40166289734746      0.13190642250719      0.82063417352354
  C   -0.91358789626021      2.00340388420645      2.30102059945087
  C   -1.78884187748536      1.29139204445831      1.49262739046742
  O   2.95477439771049     -2.02459799930971      0.54110726726309
  C   3.19682733146033      1.20074901305922      0.03329212376351
  H   2.25010852621183      1.72293712671505     -0.11949987466195
  H   3.26056292251876      0.38157702825048     -0.68374690762875
  H   4.00585842246692      1.89793759534205     -0.18303192701040
  H   4.23063221655476      0.09133135276056      1.56427410092092
  H   3.35922755419621      1.49191851401946      2.17249861860080
  C   1.18035972645999     -2.66871131887502     -1.88241801322094
  H   1.16036580779737     -2.48515155304909     -2.95735624084404
  H   0.56927366537045     -3.55224647049024     -1.69230594380796
  H   2.20384811760995     -2.88662469433594     -1.58637544262506
  H   1.21454104533695     -0.55951840701398     -1.41839101732002
  H   -0.38534888612390     -1.26321293064344     -1.48441454104004
  C   0.91992560969232     -3.98980996058008      1.18803029449914
  H   -0.78144007955090     -3.16184742610222      0.17234063364428
  H   -0.59356629377469     -2.61245395029207      1.82423395025975
  H   1.51309086794688     -4.25289076180511      0.31513729281294
  H   0.35105057408387     -4.86628469929009      1.50088448440012
  H   1.61684082435352     -3.73521743426745      1.98534347577917
  C   -2.41385741752461     -0.57588821447101     -0.04221483723036
  H   1.08168305770187      2.10224281196946      3.10369069980249
  H   -1.25494352558331      2.89764839871330      2.80589262087192
  H   -2.80894440510110      1.63947545100146      1.37977668178269
  H   -3.42219050377062     -0.35471410351905      0.30566494834744
  H   -2.28268528070002     -1.65552570769937     -0.03208541348020
  H   -2.34586033670001     -0.24309788680948     -1.08014706551497
  H   2.34419402410346     -0.62896780883250      2.86432433616794
