27
Coordinates from ORCA-job 16optt
  C   -3.55283466084709      1.33488000560161     -0.58760378865156
  C   -3.40730442519959     -0.04358912413598     -0.79213857316543
  C   -2.42297762008698      1.90864160945052      0.20484683436119
  C   -2.16886304663650     -0.60541266172346     -0.17480601217768
  N   -1.63117921644183      0.65493709479963      0.42297882739874
  O   -0.55820819046497      0.66700002557793      1.07528569776010
  C   -2.44257006323204     -1.61793680941231      0.93156306864995
  H   -2.85797908276714     -2.52850708991428      0.49969634505529
  H   -3.15402454574066     -1.21537953313023      1.65264017951044
  H   -1.51046000473269     -1.85285848968273      1.44537303292806
  C   -1.17439306578593     -1.15251242399394     -1.19319541731687
  H   -1.57641601562327     -2.05872637472344     -1.64643863876835
  H   -0.23422170057678     -1.38378738281716     -0.69255736969601
  H   -0.98781896288674     -0.42073997890190     -1.97929326449378
  C   -2.83673406435111      2.47509809698168      1.55985139038801
  H   -3.44756031623019      1.75557174710036      2.10472678367205
  H   -3.41203717830230      3.39125389539929      1.42050380918349
  H   -1.94561913547194      2.70018992047998      2.14573489195445
  C   -1.56691448670146      2.90834934631547     -0.56767165773611
  H   -2.12700557573750      3.83011637674749     -0.73034180566964
  H   -1.27760524859861      2.49781025956638     -1.53492210536296
  H   -0.66789107987359      3.13455386853421      0.00566316971857
  N   -4.39299667408399     -0.56822742742372     -1.48713362966827
  C   -4.72797114066469      1.65274378119773     -1.21748205280715
  N   -5.18664573291555      0.48486856051242     -1.73567559035312
  H   -5.27256555439305      2.57282141231263     -1.34548026840519
  H   -6.02974321165377      0.34441129528183     -2.26450385630822
