42
Coordinates from ORCA-job 173optt
  C   0.68873058075464     -0.59863208200943      1.47008539756561
  C   -0.17967593387788     -0.09390333949518      0.50378452066388
  C   1.82810932083901     -1.36999553002975      0.84540389317934
  C   0.30012352336113     -0.39586996817453     -0.89078404104101
  N   1.43067855819769     -1.29697112915516     -0.58421455078662
  C   0.40936078385698     -0.41103184241768      2.81737279858280
  C   -1.33743964881012      0.57450638030073      0.87211476171555
  C   -0.74014225656515      0.27709827125458      3.18661052709825
  C   -1.61267576727748      0.76262740995905      2.22059186846870
  O   2.13994779932130     -1.79777521038525     -1.49469905981896
  H   -2.02852715927820      0.93430665972450      0.11992197850613
  H   -0.96098410474447      0.42693156468956      4.23534744644348
  H   -2.51278651558333      1.28363912544870      2.51958123977481
  H   1.07494299755324     -0.78983151886262      3.58064621004003
  C   3.22050918842444     -0.71114054338516      0.98590763913461
  C   1.83721923094623     -2.86490613131983      1.21613599695735
  C   0.87204320846838      0.83936434048386     -1.61512364379258
  C   -0.73035746450994     -1.13179362634393     -1.75409717563872
  C   -0.15707048535417      1.86311964844373     -2.07435024084570
  H   -0.72485013096837      2.26601913735431     -1.23499236788497
  H   -0.85795032838199      1.43881921382408     -2.79339198536594
  H   0.34378463559615      2.70011692568629     -2.56112343385368
  H   1.43782057025903      0.45993853640233     -2.46916016490297
  H   1.58769183522393      1.31880634317368     -0.94230245237447
  C   -1.13961103284930     -2.48700640033535     -1.19366111510795
  H   -0.28989902504411     -3.17003287121299     -1.18140217026192
  H   -1.92339402389189     -2.93371708692658     -1.80499625770963
  H   -1.51957551449339     -2.39284171677509     -0.17406270182224
  H   -0.30413619326216     -1.25188524040808     -2.75313145897138
  H   -1.60721256595300     -0.48796791998749     -1.85242662013859
  C   3.55493659626048     -0.11857371992285      2.35081085026005
  H   4.58089954736887      0.25080861268940      2.34797852298517
  H   3.46831300907460     -0.84415749900463      3.15858003613000
  H   2.90045988562565      0.72114427324556      2.58423725229343
  H   3.28467532446607      0.08191167628497      0.23849982726684
  H   3.96381085608472     -1.45745017260782      0.69600002294225
  C   2.47125441137175     -3.24347185873054      2.54790773488435
  H   1.97585214470524     -2.76988765650410      3.39576747182201
  H   3.52909053278948     -2.98225933877235      2.57738824799044
  H   2.39764031072073     -4.32180311079293      2.69090327842587
  H   2.37610504926641     -3.36516245867204      0.40757359666020
  H   0.80444825030872     -3.22041014673395      1.18171832052618
