38
Coordinates from ORCA-job 182optt
  C   0.66949598956521     -0.66384871281313      1.82783301912182
  C   -0.31588499571992     -0.28346133617835      0.93758398249652
  C   1.91931651340323     -1.12829130867366      1.11952343391228
  C   0.14484792662590     -0.43464359135962     -0.48692230113315
  N   1.46952832075249     -1.07197141804274     -0.29178225884867
  C   0.46566288183246     -0.58971359765031      3.19489704056750
  C   -1.54359635492319      0.18259544344347      1.37481394501628
  C   -0.76275528741924     -0.12594142554643      3.64465163902704
  C   -1.75741698337217      0.25581115169713      2.74415921833293
  O   2.19155390076895     -1.44039331157221     -1.24859570175943
  H   -2.30599645420626      0.47858034270399      0.66584175818412
  H   -0.95377246145728     -0.05800452865043      4.70747317083307
  H   -2.70646551424425      0.61462001704215      3.11986798363321
  H   1.24611178039956     -0.88672067104097      3.88351188472909
  O   3.04312364782678     -0.34653244252042      1.34924741965221
  O   2.35473174095273     -2.39107484619882      1.49296002101609
  O   0.25058017553963      0.82029367567621     -1.06264620238037
  O   -0.65939974297991     -1.20112607196953     -1.32744282661312
  C   0.74156142634365      0.89665533055574     -2.34918006138616
  C   2.95156711824533      0.99064905098958      1.06469088863455
  C   -0.99755383677290     -2.46147283843708     -0.90821611275438
  C   1.59868650541875     -3.46876653588450      1.10194332571998
  C   1.09452695673690      2.06556713093606     -2.84932434506804
  H   1.45694491382578      2.12142139820579     -3.86386580237758
  H   1.02281917790548      2.97255635919667     -2.26501566185040
  H   0.79515479548390     -0.04139232746751     -2.88273879733870
  C   3.79105993984840      1.85398005820099      1.60515963949847
  H   3.73491446123840      2.89475880730208      1.32644716483490
  H   4.54757791578247      1.53564568753568      2.30864305284059
  H   2.18831169485330      1.27431753625591      0.34750026573971
  C   -1.34928134564176     -3.39493859436156     -1.77197164016079
  H   -1.66419399918959     -4.36173550355806     -1.41018308862102
  H   -1.33893760431861     -3.20807360763398     -2.83657408537031
  H   -0.99075404648286     -2.61504566737405      0.16595077264019
  C   1.21318932962088     -4.38160900986557      1.97376683503873
  H   0.69504014116293     -5.26504320789197      1.63114205705649
  H   1.43217379408538     -4.27526783741662      3.02738498049872
  H   1.41335757850934     -3.53790359763381      0.03568538663758
