34
Coordinates from ORCA-job 184optt
  C   0.27295651538024     -0.69216677270294      1.56661562183138
  C   -0.55836152585791     -0.15594629089610      0.59299605753754
  C   1.33531186725571     -1.55873323222836      0.93111458077870
  C   -0.10446896908807     -0.53976279529838     -0.79256486712331
  N   1.20662676333461     -1.15663072814469     -0.47454642249040
  C   0.07690599798271     -0.38478088448469      2.90361313886549
  C   -1.61057524156601      0.67662443409891      0.92633273150235
  C   -0.98790589078062      0.44037214049493      3.24785218833738
  C   -1.82727988339142      0.96240295681615      2.26901603197436
  O   1.95831452082436     -1.62036937644806     -1.36473017012640
  H   -2.23357818640087      1.11067972718411      0.15409107885753
  H   -1.15804072039228      0.68921208760958      4.28697232737002
  H   -2.64385663713391      1.61172460867569      2.55585013725826
  H   0.74411384894781     -0.76022027455818      3.66981374705309
  C   2.75010732094650     -1.37636312951453      1.42980687081309
  O   0.97216353808485     -2.94385454423437      0.93288590139163
  O   0.05182058007992      0.55616807695918     -1.66046303781193
  C   -1.00158363518379     -1.52703121768762     -1.50989991833866
  C   0.85490876641247      1.57642437925930     -1.24314624674562
  C   0.87124538917366      2.74199540409117     -1.86527984256695
  H   1.54378376377206      3.51578908837201     -1.52927126550057
  H   0.23393004631987      2.93180880195918     -2.71761400984509
  H   1.49036936926305      1.35634306359274     -0.39161067556092
  H   -1.15007562270787     -2.40846126214448     -0.88843722379459
  H   -0.52140658819850     -1.81431122172940     -2.44428200437543
  H   -1.96148793673907     -1.05719844072521     -1.72063084588621
  H   3.03055376597281     -0.32455055689357      1.38941719825711
  H   3.42078332321308     -1.95795144433157      0.79933590861095
  H   2.83335638612977     -1.72694433180246      2.45890285122101
  C   0.90615167016558     -3.57397406070365      2.13619937656389
  C   1.05413205563921     -4.88340831443004      2.24527750071134
  H   0.93343023019270     -5.35630789040498      3.20773475280750
  H   1.27707103344775     -5.49391806238917      1.38144820906881
  H   0.67394408490153     -2.94480993736043      2.98936031935460
