37
Coordinates from ORCA-job 186optt
  C   0.65629661862379     -0.49726285630552      1.62872959482095
  C   -0.32576901544304     -0.28494544600448      0.67655190789050
  C   1.90574947292084     -1.08318292671384      1.02510411012068
  C   0.12426167777635     -0.67839558645211     -0.70779392878798
  N   1.50777753875853     -1.14664100889125     -0.40284225727375
  C   0.42185751766123     -0.17405085504815      2.95697753078812
  C   -1.55538436434526      0.25494568722162      1.01107055461594
  C   -0.80986469340909      0.36529638541494      3.30409557211766
  C   -1.79224560515336      0.58035182914040      2.33915060091010
  O   2.29300015621473     -1.55391651859898     -1.29703678512064
  H   -2.30472721235789      0.40952801815406      0.24488713113269
  H   -1.00963982623722      0.62381026814567      4.33588697966811
  H   -2.74428327709896      1.00415602717649      2.63032054498428
  H   1.18290817657775     -0.33628050222700      3.71101011918408
  C   3.12230637011890     -0.17422119272942      1.18165053077268
  C   2.21528223182526     -2.48971283429217      1.53029693266104
  O   0.13654636029187      0.41953818235949     -1.59248499788127
  N   -0.71318939631722     -1.66290789933304     -1.32672895938864
  C   1.09468932876537      1.37778131925112     -1.41611637144830
  C   0.79018508676217      2.66333838331149     -1.43230944584111
  H   1.57588764711261      3.40209252817400     -1.37997288935404
  H   -0.23621667813971      2.99203782244320     -1.52004392227401
  H   2.11143156176021      1.00737088438569     -1.34062742840155
  H   2.88727667924673      0.84626792847922      0.88013510803681
  H   3.94037941003107     -0.55412602183505      0.56896361734108
  H   3.43974093525474     -0.16086988965775      2.22482783987067
  H   1.34006185592666     -3.13357484037728      1.44888154867764
  H   2.52115577025801     -2.44902036145387      2.57617948875029
  H   3.02728787656060     -2.91528709833805      0.93999741986917
  C   -0.86776975188763     -2.87668301291268     -0.54466204206471
  C   -0.39737289857703     -1.98352927429133     -2.71690135288030
  H   -0.26643633410864     -1.07194423160977     -3.29050651752848
  H   -1.24144487990669     -2.53838211768028     -3.12807733436056
  H   0.50702934112865     -2.59521669349079     -2.80555762388132
  H   -1.14284691548719     -2.64355217528483      0.48314451131971
  H   0.04858102362220     -3.48499786080090     -0.54114638086469
  H   -1.66684178872933     -3.47211405932885     -0.98538340618087
