45
Coordinates from ORCA-job 207optt
  C   0.36357063209962     -0.63994536233368      1.76092166159750
  C   -0.48044792870926     -0.08326318508190      0.81044871650904
  C   1.50316485252823     -1.39528969010735      1.11657539724222
  C   -0.05925455860495     -0.44775591300067     -0.58686512616742
  N   1.05390914343460     -1.38755296748673     -0.29737142252680
  C   0.13690355350773     -0.44899634263074      3.11276611516433
  C   -1.56634651646401      0.68388633436232      1.19925251905546
  C   -0.94995268243139      0.32243253204759      3.50581765122645
  C   -1.79439434971435      0.88717533141425      2.55516641327099
  O   1.74442457906760     -1.89760722983007     -1.21660289020714
  H   -2.23193696890712      1.11454406668454      0.46019040391786
  H   -1.14496709482706      0.48116095652376      4.55833878034859
  H   -2.63925801563130      1.48306558937491      2.87499877850397
  H   0.79041242291472     -0.90405432786642      3.84830600258046
  C   2.79817704991270     -0.57634667272260      1.20126187216529
  C   1.67361030371735     -2.80474496934146      1.66289543761588
  C   0.47268696372354      0.74429660578938     -1.38512229681170
  C   -1.15689381203337     -1.15849168254677     -1.37202185165460
  H   -1.63865464602458     -1.91147040839611     -0.75292225162205
  H   -0.72370104683803     -1.62896811194279     -2.25593541261107
  H   -1.90586736653826     -0.43381471955607     -1.69404359716792
  C   0.73607801987772     -3.80849753260025      1.42402942845047
  C   2.75032781704726     -3.13594348592616      2.49038637317649
  C   2.89382709719987     -4.38435524062854      3.06002217977188
  C   0.85972254233752     -5.07478253096963      1.99346061837123
  C   1.93787304542626     -5.36648897539934      2.81591950176007
  H   3.51260491187970     -2.39862390007547      2.69574614162609
  H   3.73590785495619     -4.61930501962441      3.69608322340568
  H   0.08524289867471     -5.80017637755829      1.79103834022143
  O   2.13266421679115     -6.56399337078196      3.41943840097266
  O   -0.36192382747369     -3.55887114504468      0.64441790286188
  C   1.17778962251187     -7.57637214873679      3.19367260612702
  H   1.51368912011371     -8.44316732503494      3.75603626438758
  H   1.11791417882819     -7.83277915692263      2.13242852258361
  H   0.18933995680358     -7.27312491913538      3.54919582171561
  C   -0.37507790095043     -4.27707011260541     -0.58577927492460
  H   -0.22445873174313     -5.34502900581543     -0.41704524554329
  H   0.40401766988187     -3.89454053764958     -1.24961511875341
  H   -1.35446938210767     -4.12211298568778     -1.03174542840648
  H   3.60169439086600     -1.09223702171331      0.67598126364879
  H   3.08255194441162     -0.40588474415967      2.23879745946043
  H   2.63793941935718      0.39547379766756      0.73776055429576
  H   0.88939806189727      0.39007556931835     -2.32823297484251
  H   1.24665160371010      1.27655886423581     -0.83361201661956
  H   -0.34149904447929      1.43947747149468     -1.59319944417620
