35
Coordinates from ORCA-job 217optt
  C   0.20413441568045     -0.44353613676091      1.75241860814152
  C   -0.44398672268790      0.34456605240577      0.81296831938421
  C   1.34582067309457     -1.22793952549746      1.15049901015367
  C   0.14916345395543      0.18072800137459     -0.56175474624461
  N   1.19109669477210     -0.83291904279213     -0.28320911433365
  C   -0.20184889092607     -0.45512042932601      3.07574373951404
  C   -1.51193186538315      1.14622147491974      1.18590351566022
  C   -1.26924936872585      0.34944807442136      3.45331757566001
  C   -1.91883359829995      1.14604089514569      2.51414485650400
  O   1.97932709902973     -1.23892536763475     -1.17706299629972
  H   -2.02519478682775      1.75981485536717      0.45468888705674
  H   -1.60250583900901      0.35538712359370      4.48289761077309
  H   0.30028422347619     -1.09367174447105      3.79230467162042
  C   2.69678829388204     -0.72273858980399      1.64898477994500
  C   -0.84236936820057     -0.36509025782696     -1.58472461489123
  H   -1.33214211278003     -1.26231690131836     -1.20646951270005
  H   -0.31226720796953     -0.61124850495343     -2.50515242002134
  H   -1.60436219959112      0.38386006214085     -1.80422848122540
  H   3.49498127052631     -1.07098863147196      0.99553627500725
  H   2.69549771770419      0.36637712316980      1.64499452746627
  H   2.87191316997181     -1.07269094362973      2.66655130622109
  N   1.18892214571105     -2.65254390466308      1.36885060899099
  H   -2.75081027194270      1.76624438827734      2.82144589556441
  C   0.81264646558937      1.45714331748923     -1.07622200127310
  H   1.34343532707426      1.24084276128962     -2.00342466164724
  H   1.52170288360910      1.84439367828224     -0.34412946985775
  H   0.05655843856723      2.21977653957572     -1.26695771779373
  C   2.33655552463479     -3.48799713873264      1.03160391008309
  C   -0.02165329243860     -3.19509059523999      0.77188104204990
  H   3.21578570940312     -3.18264528353711      1.59364242263215
  H   2.57214546800570     -3.47178540541712     -0.03866898020095
  H   2.10006784401092     -4.51173348929769      1.32274312660930
  H   -0.88585071327755     -2.59349146917830      1.05279091564989
  H   -0.17576771245252     -4.20714280983186      1.14547308858194
  H   0.03952713181396     -3.23617817606826     -0.32526997678041
