34
Coordinates from ORCA-job 242optt
  C   1.05475500674650      0.47651783690418      1.22847788957155
  C   1.86251492516753      0.29776601081760      2.34974090036152
  C   0.36157388521268     -0.58216550406897      0.66726279288750
  C   0.49096207827765     -1.83514756798167      1.25181792185176
  C   1.98440983310409     -0.96347010226774      2.92613698753946
  C   1.28936715186706     -2.03452507382327      2.36497251171418
  C   -0.17183816550395     -3.11384974342364      0.81279845531587
  C   1.27863747785237     -3.46856752510307      2.82696831404918
  N   0.36833468906337     -4.05467724502083      1.81515226748428
  C   0.25238257784329     -3.55772431674953     -0.58509314264316
  C   -1.69396432706547     -3.06332762175931      0.92817118223334
  C   0.67207485017963     -3.65734425647190      4.21644120328571
  C   2.64093448652319     -4.15292518081467      2.72992948519515
  H   -0.26515840869359     -0.43547949463981     -0.20343581870294
  H   0.97368305303987      1.46524872577537      0.79582498484173
  H   2.38835530602376      1.14599481116194      2.76244838781276
  O   2.74529062768295     -1.23457544818167      4.01706853237238
  H   -1.99221665647845     -2.73562427527597      1.92418456549307
  H   -2.10209420918797     -4.05730259797864      0.74469652544044
  H   -2.10274731066956     -2.36859679666187      0.19334613939545
  H   1.33913468337922     -3.57917466855996     -0.66743944606955
  H   -0.14283474117665     -2.86935837758887     -1.33321631601808
  H   -0.13811244655883     -4.55676855189701     -0.77911541158881
  H   -0.29396819998543     -3.15602322534125      4.28362664689126
  H   1.33883849523514     -3.24506281386813      4.97228550763248
  H   0.52959676122181     -4.72258317553591      4.39908802441456
  H   3.07386577510861     -4.00343176259606      1.74033902272560
  H   2.51298367610728     -5.22199771458751      2.90078752319495
  H   3.31725635082429     -3.74374977225079      3.47887785286708
  O   0.05519474431316     -5.27270037996475      1.82296875412893
  C   3.45636536577211     -0.16739708221751      4.60604084390094
  H   3.99337208015545     -0.58966846387932      5.45086657181488
  H   2.77573112766031      0.61127745240356      4.95970824304407
  H   4.16998945695854      0.26703390144707      3.90133209756238
