34
Coordinates from ORCA-job 243optt
  C   1.11114947206029      0.44024843383632      1.29833448256326
  C   1.90769054227717      0.22971446037606      2.42262103309625
  C   0.41318524090523     -0.62467653790206      0.73348765175425
  C   0.51307775888364     -1.88454287991259      1.28834244045735
  C   2.01195529748798     -1.04439628200196      2.98376963087553
  C   1.31439612448139     -2.08548348530037      2.40975238954609
  C   -0.15723984023662     -3.15686075385475      0.84348419418562
  C   1.29132506036375     -3.52272864324107      2.85791915381522
  N   0.38629474891408     -4.10443239068481      1.84202868251265
  C   0.25693021168043     -3.60245126316334     -0.55664503087387
  C   -1.67885195959296     -3.10726711679375      0.96741976686989
  C   0.68319024294877     -3.70454037190021      4.24679168977365
  C   2.65691521907717     -4.19941716203467      2.76850794394463
  H   -0.20545936955001     -0.45213326083838     -0.13970019583541
  H   1.02646864684297      1.42240812736795      0.85757488798629
  O   2.61909035170518      1.20532229750367      3.04181610780426
  H   2.63945964280700     -1.18091964071498      3.85612323100302
  H   -1.97154550687392     -2.78518969675786      1.96690666098130
  H   -2.09134568596644     -4.09849517246833      0.77860759893914
  H   -2.08968787450899     -2.40594880405770      0.23976157905651
  H   1.34306643723291     -3.63109752849586     -0.64431298305744
  H   -0.13651358580460     -2.90857700911153     -1.30087007337863
  H   -0.14193756737691     -4.59771260975140     -0.75345212891076
  H   -0.28551423169966     -3.20850973953356      4.30952603536171
  H   1.34418405033447     -3.27859355883624      5.00264789672329
  H   0.55129359263486     -4.76796221602862      4.44644555427416
  H   3.09089256791781     -4.05656266102813      1.77874639118256
  H   2.54304223993671     -5.26720595753938      2.95590614857756
  H   3.33347205835487     -3.77685460061274      3.51238686248030
  O   0.06734329348573     -5.32103877643409      1.85109147367580
  C   2.55750691453863      2.50831698420368      2.50748252178743
  H   3.19171804174518      3.12542434554404      3.13793452988469
  H   1.53583677667169      2.89703059098025      2.52929674311311
  H   2.93249108832215      2.53254287918649      1.48071712983054
