38
Coordinates from ORCA-job 247optt
  C   1.16383724203334      0.47286057719926      1.28519508084638
  C   1.89394514840331      0.27772590048315      2.46750221074460
  C   0.51338617866892     -0.59584123519144      0.68463033813181
  C   0.58091560800989     -1.84873953744148      1.27176227337036
  C   1.94582993108514     -0.97874769474710      3.05414506732919
  C   1.28509725798525     -2.03686758115433      2.45225624662152
  C   -0.05253152461766     -3.12606470877457      0.78836173333441
  C   1.22116763992038     -3.46587710484230      2.92083711952897
  N   0.39976825844472     -4.05997212230956      1.84313643667193
  C   0.48300531808919     -3.58835930882782     -0.56442026379186
  C   -1.57873893912614     -3.07067742648715      0.77761863332626
  C   0.50124903550301     -3.62472338107753      4.25814157143905
  C   2.58614731426333     -4.14920740821154      2.95470457490041
  H   -0.03625088365216     -0.41772093210814     -0.23220517760232
  O   1.10902303425859      1.70469472695902      0.69211878065569
  O   2.53495764655302      1.32263513280979      3.07485307114652
  H   2.51027422009474     -1.09789752901769      3.97154553134521
  H   -1.95698496143654     -2.73230710987568      1.74245439732750
  H   -1.97535033956669     -4.06448295146191      0.56980979913171
  H   -1.92231818664458     -2.38138059357957      0.00514815133120
  H   1.57257714842956     -3.61996818390768     -0.55505809251559
  H   0.15892197791476     -2.90321081344746     -1.34890946576162
  H   0.10060511760219     -4.58552401570092     -0.78276414723264
  H   -0.47054779132973     -3.13150463912977      4.23165882769363
  H   1.09684702282735     -3.18211685129991      5.05765302755179
  H   0.35576393857446     -4.68455486568675      4.46734408374685
  H   3.10122038312732     -4.02463141251615      2.00206771908175
  H   2.45256226185846     -5.21339302002799      3.14957251741388
  H   3.20143467745767     -3.71778480939246      3.74541478767319
  O   0.07616505146415     -5.27529333487284      1.84247380158963
  C   0.33637320088465      2.66379652113455      1.40625846447436
  C   3.67696073947843      1.79754041398856      2.36939060456486
  H   0.38033907225544      3.58559288864990      0.83114791585157
  H   0.74246664228023      2.82838955030642      2.40520138436243
  H   -0.70145226073071      2.32940132843990      1.48171610395785
  H   4.08113731142827      2.62019723066455      2.95439173085987
  H   3.40385027392928      2.14772228103000      1.37306298430206
  H   4.42490623427904      1.00475201942474      2.28832217659744
