32
Coordinates from ORCA-job 250optt
  C   1.00952095458588      0.50452198478913      1.24437917181106
  C   1.78589790253278      0.36411524981907      2.39386222843235
  C   0.35482119237132     -0.58302094279904      0.69397072476225
  C   0.48211404284520     -1.82190547179450      1.29659813998521
  C   1.93601989339649     -0.89774968627559      2.99027366163291
  C   1.27171043962937     -1.98797851961447      2.42843004981136
  C   -0.15621804930577     -3.10795983617149      0.85086608998663
  C   1.27590409812501     -3.43318042485742      2.88350542269321
  N   0.32656871360050     -4.01820971421638      1.90479832989071
  C   0.34787754761508     -3.58384491396612     -0.51087356734443
  C   -1.68202137727236     -3.06064176571726      0.87763436387033
  C   0.71157776813432     -3.65487626621273      4.28574080747356
  C   2.62963733120849     -4.12507594342583      2.71605978446534
  H   -0.25395399502311     -0.45711344481002     -0.19328883670645
  H   0.90409664843922      1.47989920537455      0.78767359077262
  S   2.58037113600440      1.75700807680586      3.13384226656460
  S   2.89565644949940     -1.10314308591284      4.46664901220407
  H   -2.03740684352698     -2.70988647567546      1.84653369793327
  H   -2.07648021831110     -4.06022552754047      0.69522172224090
  H   -2.05013667003118     -2.38714840731712      0.10257278465426
  H   1.43744257759276     -3.61096979061003     -0.53006176116759
  H   0.00031489813008     -2.91003134967170     -1.29510631112892
  H   -0.03544808289942     -4.58521572124788     -0.70642534185351
  H   -0.21717875404552     -3.09949673463221      4.41987280099066
  H   1.42589720822870     -3.34633400402458      5.04752971775551
  H   0.50706361369580     -4.71866767873644      4.40903758732929
  H   3.02353120525519     -3.95504044379667      1.71355739692623
  H   2.48993738116442     -5.19633430279332      2.86191783051417
  H   3.34490544663104     -3.75106197631908      3.44568594929740
  O   0.04437134834831     -5.24320807946481      1.90535518919321
  H   3.90255840532647     -0.29740131121860      4.10144609927039
  H   2.27580778805517      2.61332730203353      2.15368139773929
