32
Coordinates from ORCA-job 253optt
  C   1.11416485601030      0.47611334866855      1.30730439771976
  C   1.93494528326651      0.26483967743674      2.42807447457704
  C   0.42521953859110     -0.59732936073537      0.74389726375798
  C   0.53739562120299     -1.85678641975908      1.30045265938969
  C   2.02602434063069     -1.00964361870532      2.98655275333632
  C   1.32446716426902     -2.05944606874470      2.42583145791832
  C   -0.13029141137754     -3.12736856169123      0.84785401442212
  C   1.29722209332792     -3.49471704156903      2.87786797623109
  N   0.40163003134149     -4.07521582093968      1.85243272394627
  C   0.30175514314883     -3.56854717405513     -0.54822884820613
  C   -1.65284097986360     -3.07195958993089      0.95453331469755
  C   0.67365411352765     -3.67306277227372      4.26047956550214
  C   2.66292449999799     -4.17316610981847      2.80434038462864
  H   -0.21068223819726     -0.42459584037453     -0.11664158985726
  S   0.94835201705101      2.04365723421838      0.50748144885924
  S   2.82527992343326      1.55971990921797      3.23695861943697
  H   2.66581450746618     -1.16575464253886      3.84740344300694
  H   -1.95695704243354     -2.74736830141275      1.94976158685483
  H   -2.06345864909233     -4.06341816514253      0.76384286134181
  H   -2.05461414504918     -2.37290048940745      0.21993686599797
  H   1.38885311618476     -3.59577463114619     -0.62367336236250
  H   -0.08487032198291     -2.87538030432283     -1.29644851982540
  H   -0.09297529962970     -4.56444966094134     -0.74916479878626
  H   -0.29626003033986     -3.17810841335550      4.31176725262048
  H   1.32606461990198     -3.24564179301482      5.02300895921658
  H   0.54043109995405     -4.73604389435637      4.46122644065954
  H   3.10841170931983     -4.03349186275694      1.81930881665321
  H   2.54524719059171     -5.24024628056372      2.99289272756083
  H   3.33219709801274     -3.75131354749268      3.55525321205941
  O   0.08030092905980     -5.29071063494785      1.85787713099131
  H   3.20608509846415      2.20316444448495      2.12473096492848
  H   0.91583012321196      2.78340638597050      1.62462580272298
