38
Coordinates from ORCA-job 256optt
  C   1.13353845150218      0.44043957888284      1.02256398992465
  C   2.11051333359138      0.28189161026191      2.00490944783911
  C   0.33360364724718     -0.62657167789432      0.64107380368712
  C   0.50738602788341     -1.85825439833152      1.23985109668888
  C   2.27466502981698     -0.97129744665332      2.63082095139612
  C   1.47067747497481     -2.03533726881335      2.23093297050137
  C   -0.25739164053967     -3.11893942325077      0.94855704971694
  C   1.47411061373959     -3.46606859247565      2.73026267166825
  N   0.35353442010778     -4.02753107264746      1.93501000315875
  C   -0.01151802738885     -3.65111050372909     -0.46285972817920
  C   -1.75328419518230     -2.99498792916426      1.22777194906221
  C   1.13168263011327     -3.62305896246308      4.21086668783682
  C   2.74938810292820     -4.23217303787438      2.37719349143036
  H   -0.41865847991200     -0.48731878515384     -0.12673853410959
  H   0.99254616316543      1.39501333970359      0.53868542286575
  S   3.18059244751803      1.59251675345276      2.50447854565335
  S   3.51753557922910     -1.16826510334841      3.88617688352024
  H   -1.92438440784908     -2.60839799817028      2.23253340796050
  H   -2.21908619568459     -3.97661891666751      1.14108537511681
  H   -2.21515614145159     -2.31858155948971      0.50725699839784
  H   1.05708314417634     -3.73391801903802     -0.66177275888606
  H   -0.45343691153571     -2.97750566334507     -1.19838764208853
  H   -0.46818416651924     -4.63582961079882     -0.56206586574716
  H   0.26472909114966     -3.01406393832779      4.47157498052471
  H   1.97887680266459     -3.33298725998125      4.82950546448913
  H   0.89308917535760     -4.67020548478931      4.39867056894089
  H   2.99426220694377     -4.10285712687067      1.32239139621863
  H   2.58373641072540     -5.29195668358222      2.57215701813314
  H   3.58239745544122     -3.87881132795535      2.98205347885798
  O   0.01695372899972     -5.23580092088909      2.02269783308801
  C   2.55684201263217      2.98566303423098      1.55285286068796
  H   3.16705788742316      3.83378524005344      1.85727592861210
  H   1.51485081165380      3.19751792601791      1.78727162431301
  H   2.68164549549681      2.82931445472110      0.48267920117643
  C   2.63716737910671     -0.44456409127457      5.29391663769265
  H   3.33125597892320     -0.45625039073983      6.13251742365145
  H   1.75980483964725     -1.04036684177049      5.53800456311285
  H   2.35356382390428      0.58268809816502      5.07466480308643
