38
Coordinates from ORCA-job 260optt
  C   1.11274146123036      0.48823530756379      1.29138895804327
  C   1.91940164167449      0.30478476809344      2.41216838299082
  C   0.40744813499611     -0.56131302681850      0.71777334079596
  C   0.53296359591968     -1.82791502872439      1.30776235492660
  C   2.03852131138615     -0.95004282918384      2.98893830403877
  C   1.33509858488526     -2.01300891881957      2.42196840141734
  C   -0.12125305311394     -3.12775837544536      0.88778118045953
  C   1.33639499057793     -3.43923048295203      2.90480796736334
  N   0.42218801214491     -4.04297082824108      1.91608431386682
  C   0.32297384773821     -3.63003840770937     -0.48665862326851
  C   -1.64595694678199     -3.12365626286932      1.00633139817678
  C   0.74529110767794     -3.61055366684135      4.30372645667802
  C   2.70327613914348     -4.11555453226727      2.80331469968711
  S   -0.62315736439910     -0.36592677610940     -0.70439793378406
  H   1.05078718315747      1.48275764968832      0.87526133957045
  H   2.44548146554513      1.15632712918415      2.81812173112239
  O   2.79975202297223     -1.22748011119823      4.07991982799099
  H   -1.95278486266256     -2.72392645945921      1.97332310822290
  H   -1.99837679196263     -4.15184445559625      0.92150608680177
  H   -2.09888887680117     -2.52491793695739      0.21831863180843
  H   1.40964710223132     -3.59948788071901     -0.57147468441028
  H   -0.10890903091621     -3.02603333273141     -1.28269916886457
  H   -0.01091234860677     -4.66164890901250     -0.59978149437013
  H   -0.22162139411808     -3.11119823843883      4.37331653594697
  H   1.41827191224755     -3.18833452997089      5.04796659752616
  H   0.60692570155272     -4.67401839743988      4.49914351239548
  H   3.12380585927694     -3.97842525812845      1.80658815508505
  H   2.58269966273724     -5.18261661451884      2.99070629539315
  H   3.38490601476212     -3.69149877231479      3.53866930469714
  O   0.12827314711851     -5.26511827959950      1.93966037601854
  C   -0.48850515200297      1.39011686316292     -1.05434640027129
  C   3.51714797083604     -0.16257318954120      4.66349869451068
  H   -1.12318865359760      1.56071650355746     -1.92150761842367
  H   0.53390609638469      1.66970287056067     -1.30309239544031
  H   -0.85544814785179      1.98929115783610     -0.22256631812659
  H   4.05557911950962     -0.58445323439354      5.50765899803833
  H   2.84123943740345      0.62031339327301      5.01763386635595
  H   4.23024109970522      0.26723909308165      3.95506581703060
