38
Coordinates from ORCA-job 261optt
  C   1.49292472536414      0.42819290191075      1.29429603793509
  C   2.13097385104975      0.19311884898090      2.50892994862685
  C   0.77531288229939     -0.59916505614920      0.64767283073658
  C   0.73288807840649     -1.85096029155307      1.25211294921161
  C   2.07850653074544     -1.06746446578441      3.09066370374129
  C   1.38710085760696     -2.08128953516478      2.46241277161780
  C   0.02420235860615     -3.10134947671998      0.77456478120058
  C   1.22369346450661     -3.49669985940528      2.94286976814760
  N   0.36497695519344     -4.03735300159245      1.87416492298746
  C   0.57501747625709     -3.67096550707574     -0.53211121770896
  C   -1.49671850022330     -2.95933320419344      0.71709898985896
  C   0.49733236334868     -3.59944679587127      4.28207700229506
  C   2.54102721509323     -4.26998170298515      2.98076515072066
  S   0.01935164901193     -0.28776220260982     -0.92397273242838
  O   1.51730605796712      1.62829580970990      0.66873950329534
  H   2.67576356680646      0.98312922922326      3.00368348317200
  H   2.58130022099180     -1.24365558785349      4.03444144845011
  H   -1.87494004557715     -2.52727269629576      1.64464008794649
  H   -1.93376669018097     -3.94971413823376      0.58758131924822
  H   -1.78444772677337     -2.32480524897913     -0.11923634538242
  H   1.66373309208514     -3.72575341984623     -0.49796052413036
  H   0.27525744529695     -3.04910471487151     -1.37344252405542
  H   0.17654391999154     -4.67682383626016     -0.66679220451649
  H   -0.43850312368397     -3.04110397296455      4.25361280783036
  H   1.12262944789988     -3.19645095969322      5.08001262516144
  H   0.27996814497789     -4.64588987243641      4.49616437119238
  H   3.05980628601172     -4.18947204268298      2.02541006942977
  H   2.33818922372616     -5.32089403691486      3.18728735294144
  H   3.18632215014035     -3.87100338417421      3.76469448376309
  O   -0.02254639209480     -5.23370259949432      1.87366582193745
  C   -1.26943627380661      0.88477331389589     -0.43997080587221
  C   2.27577937906746      2.66832811841088      1.24533659756299
  H   -1.80863147103577      1.14059399043503     -1.35043048010526
  H   -0.82734183930994      1.78134500050619     -0.01402080870671
  H   -1.95465088957539      0.42104769439372      0.26747051634562
  H   2.18707179353808      3.51490510706290      0.57017853428469
  H   3.32733903437118      2.38502826328491      1.33678786758158
  H   1.88690478190023      2.94497933199095      2.22885189568360
