34
Coordinates from ORCA-job 269optt
  C   1.06173789001258      0.52506610055731      1.36558944549001
  C   1.85830044502496      0.32041973248914      2.47935565814965
  C   0.39036201454990     -0.52765916047710      0.74825374846340
  C   0.54501117544157     -1.79604273768592      1.30360651523082
  C   2.02478720307156     -0.94755626258937      3.03146437705817
  C   1.34729018499998     -2.00217908629634      2.42295963459137
  C   -0.12652058172060     -3.07288220859068      0.85742971365200
  C   1.31990450268047     -3.44462545164037      2.86925177767837
  N   0.46834451356678     -4.03198125338123      1.81271663359321
  C   0.22845599417817     -3.53954042874835     -0.55582211015526
  C   -1.64360506651994     -3.04559565736215      1.05540137299666
  C   0.63717915410718     -3.63469151597528      4.22528748867128
  C   2.66977073688878     -4.16420235899750      2.83379815496059
  N   -0.46190700443919     -0.29275295230569     -0.34362281015183
  H   0.95902663481231      1.52607374619769      0.96261204721887
  H   2.36640564916950      1.16451857983232      2.93129681159940
  N   2.78723299521854     -1.12657007136578      4.19763185030023
  H   -1.88551941935352     -2.77567893546080      2.08335595278586
  H   -2.05059842400675     -4.03478685751565      0.84465915285164
  H   -2.09987364522170     -2.31337985298402      0.38991150893883
  H   1.29114885962982     -3.40302755846957     -0.75697760483182
  H   -0.35185342135965     -3.01255351666900     -1.31371195742278
  H   -0.01462082197643     -4.59968395056536     -0.63391311565960
  H   -0.35136279390226     -3.17555293321294      4.21809303544593
  H   1.22691989002131     -3.17124078670986      5.01557557969244
  H   0.53000166923746     -4.70078733064128      4.42649685581829
  H   3.22904552160976     -3.89986750613398      1.93618344876431
  H   2.48164356768327     -5.23831116093060      2.83184118329780
  H   3.27339630706559     -3.93768419386118      3.71312787170424
  O   0.13988127015927     -5.24568278875853      1.82416555709789
  H   3.40164505984958     -0.35029701377603      4.39340269883412
  H   3.29851599155573     -1.99486477489228      4.23170989536824
  H   -0.30722603725482      0.60295497724281     -0.78209294733830
  H   -0.46204001477929     -1.02562483032239     -1.03605742469406
