46
Coordinates from ORCA-job 272optt
  C   1.02286193218829      0.39587395746728      1.24805725219008
  C   1.88079963166147      0.22008185759675      2.37389634572886
  C   0.37104810360662     -0.71640550007801      0.71763137125928
  C   0.51351793369658     -1.96777075488009      1.29671704412207
  C   1.98310920220486     -1.04490626384098      2.95083141210665
  C   1.30000162404633     -2.12726809177331      2.41835443749301
  C   -0.12877256956013     -3.26051335529197      0.87035556125275
  C   1.30596694797383     -3.55148169652147      2.90516347650977
  N   0.42236768809729     -4.17586359015788      1.89493644663002
  C   0.31087689273015     -3.72590147734042     -0.51547359407408
  C   -1.65241479790820     -3.23859588606602      0.97537851738742
  C   0.68770892672534     -3.71373821041038      4.29216139553365
  C   2.68420183468140     -4.20598105865835      2.84642004687499
  H   -0.27989922740574     -0.59878624626368     -0.13865701096083
  N   0.85754885674565      1.67548029859780      0.67493952107722
  N   2.59420408697391      1.31859054818910      2.90095131810401
  H   2.62644135111313     -1.19329776033949      3.80806899891338
  H   -1.96318010368005     -2.89960434590740      1.96376036906409
  H   -2.04330938601561     -4.24180556552704      0.80459475784249
  H   -2.06887298892481     -2.56263036506358      0.22716523889859
  H   1.39839599052481     -3.73367916258168     -0.58965929660613
  H   -0.08740362820979     -3.05557261636595     -1.27854741255755
  H   -0.06506947056163     -4.73305924461104     -0.69655670052355
  H   -0.29417733914740     -3.24174248906247      4.33115363918125
  H   1.32890134200325     -3.24957882225875      5.04292590743246
  H   0.58143884177712     -4.77416154719621      4.52157146328615
  H   3.12493498416823     -4.08036832788358      1.85731111113364
  H   2.59025563155472     -5.27064667838350      3.06129210180304
  H   3.34640501279570     -3.75193198548780      3.58500439932722
  O   0.12673213716188     -5.39825609902798      1.92841336261042
  C   3.56232731672260      1.92491717148519      1.99404932610629
  C   3.14754862219403      1.15971376967618      4.22804967737831
  H   3.11406929453445      2.08089098993811      1.01756394969044
  H   4.45437369565279      1.29189417302940      1.88591985438036
  H   3.87216217002834      2.88991840890836      2.39761997449725
  H   2.38431075946015      0.79472312639754      4.91455401614050
  H   3.49064495645211      2.13380237028481      4.57723015256435
  H   4.00656527053642      0.47228337212461      4.25733665280660
  C   0.25849601042199      2.67672350903935      1.55006330047394
  C   0.28184271127226      1.72675280528531     -0.65116823847147
  H   0.80308818441521      1.03931475932294     -1.31652676973105
  H   0.39845216774099      2.73925766158578     -1.03825631179049
  H   -0.79187548349201      1.48522902023474     -0.66465026678015
  H   0.73194345023970      2.65159658986718      2.52684811389719
  H   -0.82098740197361      2.50575517563041      1.66672197599830
  H   0.40509883477721      3.66549757631834      1.11297311179895
