30
Coordinates from ORCA-job 2optt
  C   -2.50037480265609      1.36972082810192     -1.06788324200183
  C   -2.82316780296534     -0.10628310926257     -0.82032220462066
  C   -1.91147373548930      1.84930458873094      0.26608436288874
  H   -3.37830160145354      1.94669947722194     -1.35880272824152
  H   -1.74932116746850      1.47140543231875     -1.85295193474824
  C   -1.64562918029187     -0.61685599236871      0.03210409001694
  O   -3.11756778073056     -0.91486284822511     -1.93554239425645
  H   -3.71602442631514     -0.16229359839348     -0.19073159082157
  N   -1.35654377429222      0.59341868533285      0.81852874523529
  O   -0.61351389580430      0.58328821304475      1.83516109576705
  C   -2.04331038017593     -1.76045826909588      0.94863582006703
  H   -2.32944257530170     -2.62353964647826      0.34631910427464
  H   -2.88651397434802     -1.47249630435981      1.57777066733972
  H   -1.20942488536320     -2.03257519781978      1.59454078804574
  C   -0.41452456311665     -0.99463681668782     -0.79006717610561
  H   -0.63096277112877     -1.86194082904252     -1.41460429828361
  H   0.40003942758584     -1.24095210261610     -0.10859983077170
  H   -0.08517658275913     -0.17066787410869     -1.42488958713103
  C   -2.97710853507944      2.37916355102021      1.22444486453064
  H   -3.81259895905038      1.68286937466417      1.30992398230514
  H   -3.35695399720370      3.33880851296529      0.87097398390854
  H   -2.53839277977217      2.51563614859307      2.21298074676131
  C   -0.79520478146050      2.87052119477148      0.09656753411392
  H   -1.19105958305418      3.78251501414680     -0.35257274099177
  H   -0.00667642606466      2.47545544693511     -0.54542398797497
  H   -0.36154633411301      3.11167851276361      1.06637165381615
  C   -2.59733769939173     -0.54688120166158     -3.19251819326410
  H   -2.90623272796835     -1.32595780257357     -3.88658869063409
  H   -1.50609427818999     -0.48859767753683     -3.19664681553207
  H   -3.00578942657744      0.40823428961978     -3.53471202369159
