36
Coordinates from ORCA-job 300optt
  C   0.42621015587074      0.21421797757129      1.35080043411907
  C   1.32562598899082      0.03309281617504      2.39478614282213
  C   -0.25413069286577     -0.86000909336378      0.78748017743359
  C   -0.03323270581173     -2.14495957832554      1.29055526290104
  C   1.51467155838927     -1.23892467130512      2.92236315155022
  C   0.82651728684569     -2.30761033272283      2.37505043880944
  C   -0.63669810312208     -3.47046852905194      0.87592203777475
  C   0.87308573697781     -3.73066940998482      2.85769041856786
  N   -0.16608567861178     -4.32743776751639      1.99790819420118
  C   -0.05109228183850     -4.02219473056561     -0.42753971848307
  C   -2.16140903351756     -3.49738928307571      0.85398538955731
  C   0.46845535890421     -3.88425723538632      4.32073614843705
  C   2.22143914008328     -4.40185307762008      2.59238074040666
  H   0.29353106124944      1.22101949399909      0.97202466888509
  H   -2.56983431573866     -3.05090454294081      1.76149580048325
  H   -2.48244148883384     -4.53768890261537      0.80371505244172
  H   -2.54270815489074     -2.97010037282094     -0.01777799776507
  H   1.03849088624291     -3.97420827828569     -0.41208554753721
  H   -0.41908336236329     -3.45221591373287     -1.27575789082336
  H   -0.35322917335319     -5.06564403572342     -0.51784812529031
  H   -0.48114622612664     -3.38479477240627      4.51207877659759
  H   1.23115940334513     -3.45913795918415      4.97456116650970
  H   0.36219712420353     -4.94437869003237      4.54966585070607
  H   2.51995728473168     -4.28022131759705      1.55135916918761
  H   2.13884918478088     -5.46559028088674      2.81404193890369
  H   2.99034352816497     -3.96531110883194      3.23156270626244
  O   -0.41399942609491     -5.55828011537562      2.03360062227029
  C   2.00981109713445      1.25708980285704      2.92505167292929
  C   -1.18797094884093     -0.59749474526824     -0.35898655825298
  H   2.15565295564938     -1.40497244565907      3.78261469926819
  O   -1.94059186638497      0.51163166801630     -0.25274761358373
  H   -1.83139889067615      0.92927959267514      0.60988937150293
  O   -1.27497498376058     -1.29365910143328     -1.32516897834886
  O   1.57567096031069      2.35791908468172      2.76533369467322
  O   3.15594709431225      1.06726913680345      3.60424595280233
  H   3.45562152664419      0.15421671893301      3.53744275008079
