36
Coordinates from ORCA-job 301optt
  C   0.40502131916046      0.25108873234178      1.31675569409433
  C   1.23907800384806      0.12011635053581      2.41074480421860
  C   -0.21061056593596     -0.86742429654334      0.75593374591764
  C   0.01743326200053     -2.12343248803320      1.31106554193683
  C   1.48166291808037     -1.13407766157141      2.96263852285912
  C   0.86337113040047     -2.25755789388195      2.41687026068106
  C   -0.61714776008598     -3.44367456912946      0.93572043510801
  C   0.86325036172163     -3.68143899231050      2.93987109947677
  N   -0.23994176624894     -4.24543658488747      2.12555467039967
  C   0.00405314309952     -4.09143482002226     -0.30553951870218
  C   -2.13858344735480     -3.41165450212880      0.83739215680544
  C   0.48677508849824     -3.78686186647880      4.41477915871539
  C   2.13402293694918     -4.49486063730821      2.64730658151050
  H   0.24315684313530      1.23032812763177      0.88198137236368
  H   -2.57105423008768     -2.88618298191089      1.68971027762916
  H   -2.50277056862658     -4.43869329222126      0.84173945243854
  H   -2.45627854108775     -2.93464217960171     -0.08764720980536
  H   1.09230045269139     -4.10129311983799     -0.23409893280895
  H   -0.28482018930397     -3.54303260280696     -1.19819768061129
  H   -0.35160095109189     -5.12009943724681     -0.36750012121462
  H   -0.42150658429693     -3.22123302304339      4.62074952302886
  H   1.29145434956270     -3.41429365293467      5.04887284139937
  H   0.31144093844116     -4.83549310096431      4.65495276139570
  H   2.57442497708629     -4.22753905108678      1.68513107969267
  H   1.85177013530367     -5.54758493635152      2.61683625160003
  H   2.87186092909193     -4.37813967249570      3.44019275713389
  O   -0.55838800432440     -5.45535400340234      2.22426570637684
  H   1.70557019502273      0.98815705677955      2.85719632887090
  C   -1.09224830138382     -0.67366585051039     -0.44293346230035
  C   2.38390555882702     -1.16109949520269      4.16347354705058
  O   -1.97147021379237      0.34239772044958     -0.35405536838863
  H   -1.97159700399999      0.72039628512692      0.53346745952140
  O   -1.03270522198805     -1.33482775331840     -1.43480746408845
  O   2.23286010864345     -0.44613754259223      5.10569232349090
  O   3.42130007557533     -2.01728268730698      4.10757906502764
  H   3.45716062246960     -2.45237557773488      3.24695633917619
