37
Coordinates from ORCA-job 306optt
  C   0.35158936622621      0.28974965648431      1.15015730917591
  C   1.34078861834877      0.21118638388892      2.13020772878036
  C   -0.35734852896137     -0.83173449837370      0.75624895873210
  C   -0.06308436722186     -2.04919973146540      1.34954203924997
  C   1.59615001626181     -1.01825186355850      2.74596800340283
  C   0.90392784103651     -2.14981944012584      2.34281777823233
  C   -0.68275882581775     -3.38536682330634      1.04314662149975
  C   1.08936174258344     -3.57233961514543      2.80802098985744
  N   0.01945070704715     -4.23728117733537      2.02600258923425
  C   -0.37035843701332     -3.86706617370051     -0.37316613510100
  C   -2.18407887728365     -3.42700564978768      1.31419912341217
  C   0.83282785201189     -3.80968523448668      4.29297786145150
  C   2.44817803149263     -4.14309210251069      2.39939631148873
  H   0.16762528049498      1.25730289513876      0.70267498361268
  H   -2.40381961606567     -3.06604994634396      2.31892753977687
  H   -2.53583885086184     -4.45449536831955      1.22165053417294
  H   -2.71411623437783     -2.80450879647040      0.59247683394132
  H   0.70131201366551     -3.82512694038382     -0.56846980448328
  H   -0.88392214775373     -3.24045586985847     -1.10314716020757
  H   -0.71036807945645     -4.89651246053610     -0.48426730573171
  H   -0.09003892147431     -3.32396522315174      4.61273224204940
  H   1.66674745259162     -3.43460305219794      4.88505044109423
  H   0.73876446723510     -4.88289374912321      4.45973935638875
  H   2.62049626128205     -3.99924193852134      1.33248564464643
  H   2.46692171772382     -5.21071766745345      2.61822759229797
  H   3.24060778709338     -3.64326648201815      2.95565181817294
  O   -0.16160326160804     -5.48006578323171      2.07639770642771
  C   2.10068920595990      1.47708555728972      2.41849634679021
  O   2.54595011539328     -1.13292961956843      3.74207193606984
  C   2.08411422681423     -0.68511326825797      5.02244759928867
  H   2.87186255431771     -0.91876007190033      5.73437456048201
  H   1.16688007003325     -1.20829303613729      5.29390010329708
  H   1.90339207670658      0.39146554910236      5.01187414780597
  H   -1.11756490040007     -0.75799265902394     -0.01138702941665
  O   1.68383110720766      2.55545826855888      2.11152956867081
  O   3.29978890961309      1.34739320153318      3.00347277859590
  H   3.47601362715526      0.41365273029791      3.20283038684105
