35
Coordinates from ORCA-job 312optt
  C   0.42210139683616      0.14572109074141      1.29895682722488
  C   1.24387645965345      0.06975744652861      2.43204436151729
  C   -0.17455082701079     -0.98202442941310      0.77778919232234
  C   0.04474449904861     -2.21677367155315      1.37075366735738
  C   1.51409257588707     -1.19544498245151      2.99445569654497
  C   0.90008450049392     -2.33377540677964      2.45780672314913
  C   -0.61110283204804     -3.51715423133995      1.00304796313234
  C   0.91875754894984     -3.76809884970993      2.96957177768414
  N   -0.16337846350678     -4.35368017427749      2.13283477728707
  C   -0.09125568153304     -4.10328740691136     -0.31033047819928
  C   -2.13466705925658     -3.45070015005171      0.99783925080420
  C   0.52230315943548     -3.89502717778938      4.43759106856492
  C   2.19635959339268     -4.57324270295776      2.68074486077818
  H   0.24034523745035      1.11553319697179      0.85235770992894
  H   -2.50215425151000     -3.01793876689191      1.92805985841891
  H   -2.54037857979491     -4.45644330191823      0.88909466370697
  H   -2.48175237235427     -2.84012333265181      0.16328085517641
  H   0.99736106980521     -4.16334621879303     -0.30328896271494
  H   -0.39813010753894     -3.47206893933898     -1.14547832919034
  H   -0.50072574243846     -5.10379271137352     -0.45058866536038
  H   -0.40082122037304     -3.34942211996213      4.63176748790666
  H   1.30885281224013     -3.50707100191769      5.08503434799900
  H   0.36621511829629     -4.94871254117842      4.66982532244170
  H   2.65295482221057     -4.27631285022645      1.73401309893594
  H   1.91413640675633     -5.62404282794510      2.61188307338888
  H   2.92033208357435     -4.48649079576151      3.48979188820331
  O   -0.45758933714976     -5.57269358096283      2.20910121350767
  N   1.81950429461167      1.21459195328284      2.93464620978632
  C   2.42668377569506     -1.23614099641454      4.17547036841287
  O   2.34723391486896     -0.48914034682947      5.11065127554221
  O   3.40950792357006     -2.15256221098645      4.14082392704020
  H   3.42068974333100     -2.59390455325413      3.28296877236519
  H   -0.83465949570443     -0.89539756292417     -0.07755908585822
  H   1.42990707034692      2.08188195821337      2.60647053146240
  H   2.05815196376493      1.20334819682746      3.91471875073263
