32
Coordinates from ORCA-job 32optt
  C   -3.04341400252718      0.36909012349692     -0.38576732805073
  C   -2.37112460066942     -0.75846378125418      0.16856928106258
  C   -2.46081156178706      1.66478598153633      0.07320399438774
  C   -1.22233719877176     -0.34001607070057      1.04621642132628
  N   -1.38224136646734      1.14697954957679      0.95922771712388
  O   -0.58608167902088      1.92201713448126      1.54537062339090
  C   -1.32599612381123     -0.72695991462473      2.52047712275083
  H   -1.07376616360523     -1.77615186282022      2.66797851484329
  H   -2.33442870257742     -0.54732851892715      2.89347863728277
  H   -0.62302669890624     -0.11872983961711      3.09034619264683
  C   0.15644359821350     -0.69375938619525      0.48795615965559
  H   0.34014617006180     -1.76571097933302      0.56261011535892
  H   0.92091386548096     -0.16547478763812      1.05837029089563
  H   0.22878805691916     -0.40142023670985     -0.55944520825145
  C   -3.41840571727626      2.51462873578020      0.90449461866304
  H   -3.86253231517036      1.91807021177299      1.70114927793417
  H   -4.21702230514921      2.90109716328468      0.27003755105538
  H   -2.87588544252634      3.35139818784348      1.34522358812768
  C   -1.83661496972783      2.48979411072853     -1.04970247281774
  H   -2.61988831626332      2.86947254727209     -1.70697728441264
  H   -1.15351360030635      1.87815879796892     -1.63888243218077
  H   -1.28744293202288      3.33031178238865     -0.62520872252475
  C   -2.99276224372936     -1.86491520459701     -0.35547442686805
  C   -4.03207692019164     -0.06056393781120     -1.21539559338470
  N   -3.99149336523823     -1.43901578070848     -1.18076066824461
  H   -4.75209275865573      0.46221870378983     -1.81974045888274
  H   -4.60275907716951     -2.06889130123127     -1.67050136743747
  O   -2.83230766299251     -3.20064332325830     -0.25804410106948
  C   -2.18430534101802     -3.65150075594535      0.91421133997917
  H   -2.20958853179977     -4.73747333304742      0.88440529046660
  H   -2.70580616019019     -3.28924570211099      1.80319163902347
  H   -1.14637593310407     -3.31465831339039      0.93988168815041
