46
Coordinates from ORCA-job 334optt
  C   1.74221254418978     -0.49595761917190      1.45793859704765
  C   2.40760423242496     -1.04773613187678      2.54914562033473
  C   0.68508818873594     -1.16986347418821      0.85900019280103
  C   0.31274545003584     -2.40945718277914      1.35110961420077
  C   2.04799150155524     -2.30723301576994      3.02047139588633
  C   0.99826772930645     -2.97729051871421      2.41957889737673
  C   -0.79500191741835     -3.30304760024545      0.86117307721334
  C   0.43856051348076     -4.32451753197792      2.79056902579165
  N   -0.64690667554905     -4.44342360804875      1.79227939252595
  C   -0.58531525373824     -3.78463771323695     -0.57257596106837
  C   -2.18029615744231     -2.68331426841255      1.03051541199812
  C   -0.15558831126881     -4.35245470737803      4.19710868522636
  C   1.43766589890936     -5.46253581965243      2.59765790610358
  H   -2.32218497488737     -2.33194719409760      2.05268307684123
  H   -2.93956124194681     -3.43203703137632      0.80457028914821
  H   -2.29925308416043     -1.83950944551759      0.34959127908028
  H   0.40854594033430     -4.21621664099261     -0.69216471769234
  H   -0.69165523450079     -2.95074458424525     -1.26760463320672
  H   -1.33166267234183     -4.54255825231036     -0.81044744657648
  H   -0.85442437470087     -3.52697462456068      4.33568039496247
  H   0.63780544059071     -4.26859264508364      4.94105443590880
  H   -0.68436467233889     -5.29382353271775      4.34639826132587
  H   1.86786149880940     -5.43162777827253      1.59649604005956
  H   0.92771309921807     -6.41601519897175      2.73466096020355
  H   2.24309112953739     -5.38188228322250      3.32870819104907
  O   -1.39481862988599     -5.45252450709854      1.73582836676856
  H   2.06483944277991      0.46675048705464      1.08417383286217
  H   0.16759316834049     -0.72991661677804      0.01473327092402
  N   3.48945444937140     -0.34997692965984      3.15779984933139
  C   3.52169194025355      0.61322806192027      4.13938124322677
  O   4.60462351935315      1.02703933629846      4.49839320799198
  C   2.22261772506212      1.18473085340891      4.73444588723136
  C   1.16237310918241      0.12591250326944      5.06536558779288
  C   1.64998589660723      2.20568433125287      3.74111419480955
  C   2.60313155084388      1.91473136216176      6.02458713543088
  H   3.01683879337875      1.22149425832811      6.75769020550926
  H   1.71157973951490      2.37972137203887      6.44816452965213
  H   3.35071691914355      2.68136094184746      5.83433891959336
  H   1.30368230803376      1.72832988707517      2.82550860439638
  H   2.39745277079636      2.95887063340421      3.48725399095811
  H   0.79717412572225      2.71062956194373      4.19922607787085
  H   0.65467470334391     -0.25717346708072      4.18221512201037
  H   0.40753750595433      0.58428131381886      5.70692186590060
  H   1.59433040256146     -0.71689729062609      5.60914611262094
  H   4.42249768568883     -0.61739713085931      2.87457969125314
  H   2.58052427711923     -2.72928055889925      3.86510431732370
