35
Coordinates from ORCA-job 33optt
  C   -3.01491187121063      0.32856141587384     -0.42836883828184
  C   -2.29279440624132     -0.80206261295380      0.05214810124819
  C   -2.49398963270112      1.61552048634614      0.12044756506781
  C   -1.16696171754484     -0.39171081046986      0.96240197283898
  N   -1.39646243892148      1.08888303761443      0.97708972912381
  O   -0.64231381030487      1.85762928454977      1.62405506170723
  C   -1.25582432095558     -0.88219991903848      2.40659372767563
  H   -0.95571088755232     -1.92632311721400      2.48445808768323
  H   -2.27251915713551     -0.77500256942875      2.78498986706797
  H   -0.58338096439891     -0.28153227106472      3.01973593364842
  C   0.22799859999609     -0.64260533585735      0.38915407348452
  H   0.45974403747954     -1.70783463660711      0.39036441146168
  H   0.96611833789606     -0.12106680248657      0.99917159498461
  H   0.28953399052469     -0.27540271726184     -0.63511887524148
  C   -3.49279417657873      2.36434789069522      0.99878128885051
  H   -3.91253148859578      1.69686412328481      1.75119823928767
  H   -4.30543121180049      2.75512586036701      0.38508008651800
  H   -2.99086571196981      3.19399386840920      1.49729598309155
  C   -1.90254782892487      2.53990521962977     -0.94124137389412
  H   -2.69872126145368      2.92503420047552     -1.57959556993456
  H   -1.18838655866409      1.99941693587229     -1.56229834099745
  H   -1.39530189846163      3.37543154442372     -0.45854554972182
  C   -2.86227512220070     -1.89853839002408     -0.54789398969701
  C   -3.98216243969534     -0.08858717978072     -1.28894291063027
  N   -3.87850050575431     -1.46292833086018     -1.34681110515619
  H   -4.72437189953888      0.44055449105655     -1.86004663583245
  H   -4.45926254051575     -2.08524164712207     -1.88118184207593
  O   -2.64171443393229     -3.22882064355264     -0.54002870919682
  C   -1.98156466783754     -3.74059435978065      0.60974770900254
  C   -1.93730687020141     -5.24447666213889      0.48769637529762
  H   -2.94612810425330     -5.65308046532158      0.44062178177852
  H   -1.42753477162334     -5.67353896819276      1.35011123081781
  H   -1.40114235129228     -5.53699535227408     -0.41451089871314
  H   -2.52840761014210     -3.42397745881704      1.50318128788083
  H   -0.97217430549335     -3.32378810835104      0.66201053085594
