29
Coordinates from ORCA-job 353optt
  C   -1.39808826404336      1.45603842381956      0.20136203966379
  C   0.08828824371603      1.50168768422496     -0.15887197518449
  C   -2.09985254605414      0.20194119935870     -0.29773905215544
  H   -1.86691694110464      2.35847877138256     -0.19734378919271
  H   -1.49314379548140      1.49981145706821      1.29092066809301
  C   -1.42237198959014     -1.01782275744937      0.30809941466069
  H   -2.07982892009893      0.15436832820715     -1.38916260538275
  H   -3.15178079999554      0.22495690748466     -0.00859087742942
  C   0.06242744498384     -1.12373930709640     -0.04660426858353
  H   -1.90954948518472     -1.94189515845243     -0.01106124249181
  H   -1.51644485200571     -0.96536711489487      1.39735226107579
  N   0.72847824870390      0.19343468700063      0.15296965654738
  C   0.26505924383372     -1.57616661935034     -1.49702094935061
  C   0.74001084657979     -2.12115177927612      0.88855356290362
  C   0.78634743046027      2.56149950139980      0.68859782578966
  C   0.29852052941921      1.82578587426281     -1.64229752927028
  O   1.99572683540114      0.18034533163218      0.13647008373384
  H   0.74289787018450      2.29226384250799      1.74443428615553
  H   0.28155779599410      3.51861780995641      0.54892428686406
  H   1.83013230674475      2.66197051604541      0.40051738734589
  H   -0.29819555731676      1.19021428179359     -2.29493989896230
  H   1.35107816502914      1.69841330671143     -1.89533968637631
  H   0.01659575306589      2.86297084901176     -1.83057027222938
  H   0.70298200090830     -1.76236318350255      1.91764025985981
  H   1.78129966638076     -2.26662261631050      0.61086289493634
  H   0.21604499395971     -3.07639151032514      0.83019232449130
  H   -0.31707315206248     -0.98435134148912     -2.20188909543056
  H   -0.03971739563786     -2.61903501846704     -1.59827204004794
  H   1.32018632321064     -1.49367236525394     -1.75787367003324
