31
Coordinates from ORCA-job 357optt
  C   -1.31321466674563      1.52246548414028      0.26470489332407
  C   0.15488797412797      1.54226123284069     -0.15499599633329
  C   -2.05452409665332      0.28949201414657     -0.20295182405841
  H   -1.80604821786639      2.41639304009064     -0.12132358032096
  H   -1.38493474609226      1.55818851201547      1.35548087332969
  C   -1.38396471700537     -0.94480135490974      0.37301083937935
  H   -2.04273825247990      0.22798993693531     -1.30094955566960
  O   -3.38802385644159      0.37576001437396      0.24898557094821
  C   0.09299759888736     -1.08529940845023     -0.03093130936081
  O   -2.13145105901412     -2.10632106221483      0.05061165402947
  H   -1.44020976850936     -0.86635837320975      1.46287726003192
  N   0.77952775879255      0.22356488317561      0.14914742204825
  C   0.25873370643688     -1.54825480766649     -1.48533258640445
  C   0.76973593098762     -2.09266249300368      0.89400390885140
  C   0.89966065418865      2.59528604711491      0.65998943023949
  C   0.32345171520680      1.85037028190423     -1.64734600703822
  O   2.04456650333234      0.18431173014031      0.11039703454796
  H   0.88484730820292      2.33680300747904      1.71900043268832
  H   0.40855327657522      3.56004425553116      0.52689077050327
  H   1.93496032041497      2.67224507248566      0.33652391967437
  H   -0.28485162051030      1.20577032075487     -2.28009923155707
  H   1.37036753251548      1.72762775272946     -1.92515605215154
  H   0.02985645009963      2.88337882547007     -1.83893562685369
  H   0.79936571003975     -1.70790692948470      1.91358547773255
  H   1.78926847845083     -2.28518931363885      0.56861527147527
  H   0.20004470294034     -3.02155772737634      0.88104273423778
  H   -0.36065200506144     -0.98750822193325     -2.18602339511450
  H   0.01674502770907     -2.60866394673641     -1.57331307310443
  H   1.30286149841481     -1.42049696716646     -1.76986661239617
  H   -2.06386531579039     -2.26798586095853     -0.89736068298525
  H   -3.76032382515307     -0.51420594457896      0.22541804030706
