32
Coordinates from ORCA-job 359optt
  C   -1.30737790941034      1.45782068983885      0.11988456113176
  C   0.19353553601811      1.50081931350781     -0.19079998850767
  C   -1.97560208309206      0.19725335441424     -0.39128623102718
  O   -1.90710374629626      2.60624938083907     -0.43216847597899
  H   -1.41799654571327      1.46825905860596      1.21721683568077
  C   -1.33263233284149     -1.02770190561512      0.22691231402036
  H   -1.91755550326254      0.14983246749338     -1.48029138533506
  O   -3.37174641584815      0.22412061787222     -0.10473997637476
  C   0.16688957754199     -1.12723330926378     -0.07760785797357
  O   -1.95511325440371     -2.20760536714034     -0.22477307677443
  H   -1.44269838156879     -0.94160308347307      1.32094771257848
  N   0.79487302658934      0.19490068049646      0.20033147900709
  C   0.43437532522006     -1.54926342445134     -1.52592052707314
  C   0.79474124713739     -2.14705189641722      0.86723829202478
  C   0.84296239090267      2.58497645763905      0.66364933072489
  C   0.46793057254029      1.79159293999350     -1.66974713984653
  O   2.05386510807948      0.18786562821957      0.33491761679136
  H   0.78364817591543      2.32376132953255      1.72072604543772
  H   0.31568213905943      3.52331642287496      0.49492812113201
  H   1.89027352160941      2.70292356863043      0.39741056931460
  H   -0.11944678164414      1.16819050110919     -2.34108867321019
  H   1.52681092623605      1.62118040491840     -1.86459710534698
  H   0.22673301207024      2.83080476669090     -1.88443132129063
  H   0.74150076641287     -1.79522281953031      1.89802898486538
  H   1.83922025347146     -2.30875115101045      0.61317173666662
  H   0.24830051862604     -3.08542024276695      0.77878563168004
  H   -0.13599527363427     -0.97003060649578     -2.24943601239601
  H   0.16677183860511     -2.59646176456936     -1.65217630359125
  H   1.49737638291459     -1.42280571906992     -1.73149395268321
  H   -2.90355565285051     -2.03943328525649     -0.27326496029211
  H   -2.85878475893975      2.45354496293725     -0.46594540557900
  H   -3.48864167944468      0.26694202944631      0.85312916222481
