28
Coordinates from ORCA-job 361optt
  C   -1.49333348813506      1.49490210916538      0.25832418719417
  C   -0.00624330980666      1.51423623054941     -0.12909037721730
  C   -2.15764209741374      0.22801544213362     -0.21534027156221
  C   -1.53302196357063     -1.01363720826892      0.36643519904965
  C   -0.04786085396931     -1.11341121943724     -0.01614099807288
  H   -2.06279864536003     -1.89588391580448      0.00978824336577
  H   -1.61589924613791     -0.96227885507988      1.45592625236604
  N   0.61903831349524      0.20195596473417      0.20337467037852
  C   0.10154920471326     -1.53123772696767     -1.48268897775836
  C   0.64284900977164     -2.13296305581015      0.88264442450784
  C   0.71825161605134      2.58438117214078      0.67975861109204
  C   0.15440876529671      1.80098546043155     -1.62581964392306
  O   1.88532334323232      0.18174404730580      0.20018222650952
  H   0.70743513006975      2.33338294156230      1.74074515607056
  H   0.21281394907860      3.54024479543537      0.53711443624504
  H   1.75244277868870      2.67468427415492      0.35631842829019
  H   -0.51007675341868      1.19029757499935     -2.23590623504502
  H   1.18717612513585      1.61764779327845     -1.92224996738529
  H   -0.08463067362666      2.84747306427128     -1.81979378392914
  H   0.64090180165922     -1.79190959870212      1.91824949526548
  H   1.67331047113148     -2.28366769662437      0.57005895761583
  H   0.10683529562502     -3.08080969108034      0.82109234516362
  H   -0.54185884277587     -0.95126322194904     -2.14325750142702
  H   -0.17383395193662     -2.58143564796824     -1.58829089846609
  H   1.13981443031301     -1.40936606480918     -1.79130964269004
  H   -1.99510402792805      2.35942186113255     -0.17420649735729
  H   -1.57667446531249      1.54045103364544      1.34803821882797
  O   -3.06512191487041      0.20824013756124     -1.00664605710851
