27
Coordinates from ORCA-job 362optt
  C   -1.34694053923209      1.40050774428479      0.64041491548754
  C   -0.02461038445021      1.47320956100401     -0.12786986909355
  C   -2.20151926565334      0.22777157347030      0.23255858254860
  C   -1.47128249239278     -0.93974246829889     -0.48764165787950
  C   0.02648142091454     -1.11235791637641     -0.25460035117463
  N   0.66811937613949      0.17981197481889      0.08176655947828
  C   0.69485277350705     -1.72400652990195     -1.48150364974536
  C   0.16728305614026     -2.03769869271290      0.96318684073582
  C   0.84225181224458      2.58759702068756      0.43443567289750
  C   -0.26539437733854      1.69187595682411     -1.62551545068731
  O   1.92195631515973      0.15818083035005      0.24411207375792
  H   1.08299668479942      2.39871359024232      1.47989468183262
  H   0.29668775004266      3.52867354201087      0.35788065055083
  H   1.77504331876084      2.66874628734052     -0.11851775560557
  H   -0.91603372011122      0.93091924768557     -2.06345444831081
  H   0.68621364589511      1.67562241125415     -2.15718438363211
  H   -0.73895570686899      2.66178161526818     -1.78415646386855
  H   -0.36371630407014     -1.63652193367027      1.82878465089901
  H   1.22451426027872     -2.12047963080442      1.21035957898427
  H   -0.23577216080827     -3.02100456769259      0.72490468072158
  H   0.59292211187033     -1.06701792858341     -2.34575208039221
  H   0.22532874083945     -2.67708491269564     -1.71472734684688
  H   1.75199496360135     -1.87117789923850     -1.27089898364198
  H   -1.93128292424121      2.31218304788913      0.50718428419962
  H   -1.13779071078504      1.29767482073445      1.71044204525237
  O   -3.37884586428838      0.15534529361692      0.42806333869458
  O   -2.09962177995331     -1.70052203750685     -1.16312611516206
