41
Coordinates from ORCA-job 368optt
  C   -1.13764855181365      1.58609355699087      0.34369218104661
  C   0.38496488224023      1.63753696461445      0.09128233500239
  C   -1.85293066705511      0.41899867527929     -0.35176483134895
  C   -1.23521850323459     -0.85110644778695      0.24976813210781
  C   0.27931745484591     -1.00398586670296     -0.01055573111597
  N   0.95724687028810      0.28148063171279      0.30906958139888
  C   0.64305792864444     -1.43030205044336     -1.43645199476867
  C   0.81919072532783     -2.04865788362535      0.96653645586474
  C   1.00363724612438      2.55785034138461      1.14377511329324
  C   0.78594467432639      2.14202294344100     -1.29880476464596
  O   2.21893244799605      0.22707967994579      0.40791297886462
  H   0.84550164306795      2.15333201083665      2.14454351197359
  H   0.53284395199339      3.53725655239467      1.07786227498805
  H   2.07362391775509      2.65216765632079      0.97643618133318
  H   0.32219319218999      1.56987568072159     -2.09791443568298
  H   1.87013291117408      2.06602612470667     -1.38217339533618
  H   0.50774854541524      3.19137801509344     -1.40060922898879
  H   0.69298584412368     -1.70955370320836      1.99574407653476
  H   1.87819935452763     -2.21694812283445      0.78782819728399
  H   0.27014563523339     -2.97862989705353      0.82897939452503
  H   0.22830555861580     -0.76325475192077     -2.18753563053404
  H   0.28236161756883     -2.44317794886023     -1.61767750454275
  H   1.73009025290500     -1.43464453725917     -1.51717408025103
  O   -1.71393007967007      2.86299535042782      0.17851485534668
  H   -1.25273230828101      1.39028311881958      1.41401799927312
  H   -1.33750259437886     -0.72974542510252      1.33241600162395
  O   -1.91084493953340     -2.06149481734029     -0.01160576855561
  O   -1.72409365806958      0.46716859742863     -1.76144670589567
  H   -2.91496931665580      0.45107308037069     -0.07658653533354
  C   -2.53337185971683     -2.26653997637937     -1.25883141782148
  C   -2.31244089085775      3.21294449443550     -1.04811481079972
  H   -2.81498731681764     -3.31789440261878     -1.28377935153316
  H   -1.87309115947854     -2.05025692499879     -2.09998762046435
  H   -3.44217910798945     -1.66565003265839     -1.35426670023034
  H   -2.50637008603130      4.28279018296621     -0.99258539958855
  H   -3.26714117777043      2.69785145914208     -1.18670682127934
  H   -1.66881341915055      3.00723963165795     -1.90462725716592
  C   -2.87693073547222      0.54646356110529     -2.56741499809060
  H   -2.91304109627866     -0.31443763914687     -3.23749674339406
  H   -2.84011307842206      1.45667507909800     -3.16876877699645
  H   -3.79194410768583      0.56100703904575     -1.96950876609647
