38
Coordinates from ORCA-job 372optt
  C   -1.34084327804680      1.42565132747930      0.20691389505544
  C   0.18406908859796      1.45042904479525     -0.08433178431909
  C   -2.03233379667596      0.20093238300995     -0.40351861775029
  C   -1.40721666804773     -1.07094853142964      0.16334780478219
  C   0.10723241453131     -1.18880978181438     -0.10732771394557
  N   0.75470526306198      0.11153356138080      0.23925931802656
  C   0.42363765699133     -1.54457912207967     -1.56468362100494
  C   0.72408390066460     -2.23710914938663      0.81711624539873
  C   0.87773818966111      2.45508538151710      0.83612052109481
  C   0.50378723587467      1.79955374616576     -1.54292832864800
  O   2.01628049732864      0.07687224597647      0.32773294824718
  H   0.67256934700674      2.22769797531592      1.88459417334463
  H   0.54871482324792      3.46757965745522      0.60463600802288
  H   1.95253137681388      2.40546075166498      0.68607512352712
  H   -0.09472694216490      1.23211402627064     -2.25254470497563
  H   1.55865490125425      1.59191543310840     -1.71968590447366
  H   0.32029677705463      2.85781041849969     -1.72849082943949
  H   0.59229746874196     -1.94905299522494      1.86042876936633
  H   1.78768176245735     -2.32959827291568      0.61441859775981
  H   0.24138336684707     -3.19846364283153      0.65689257718953
  H   -0.14537934101843     -0.95248641022025     -2.27928165137945
  H   0.18685633255040     -2.59332098870808     -1.74667174941468
  H   1.48880728231363     -1.39487558776708     -1.73838532021251
  H   -1.47029000738120      1.38005310764890      1.29427586669380
  H   -1.56706698684888     -1.08660268997422      1.24290592162860
  H   -1.93423637735671      0.22516333403633     -1.48965955031948
  C   -3.52717647369165      0.18622547951899     -0.05326888031028
  C   -2.15240678417803     -2.25654549079301     -0.42351325686105
  C   -1.95863363096629      2.71538755381718     -0.31960273154278
  O   -3.95165085411999     -0.44179983349016      0.87450714760230
  O   -4.33701916804470      0.91064800759108     -0.82140741045657
  H   -3.83235914485583      1.44011218250510     -1.45940779724328
  O   -2.41908768627082      2.81710551169376     -1.42315338184938
  O   -1.95287968041850      3.77365418900303      0.49700167928027
  H   -1.56322335302871      3.55442747330782      1.35214303861646
  O   -2.17574985507054     -3.31843316313729      0.39010036657486
  H   -2.69209880201563     -4.01012635287575     -0.05060868665757
  O   -2.66432885479807     -2.25454077911343     -1.50859808140781
