36
Coordinates from ORCA-job 386optt
  C   -1.64852267955211      0.99881978600405     -2.30168781216599
  C   -1.87121204749224      0.33211376855782     -0.94748317373560
  N   -0.37707232139891      0.86397878127372     -2.86524000086145
  C   0.70126549092818      0.25118960440691     -2.22114165687019
  C   0.68102806157275      0.14556954519180     -0.70154086096918
  N   -0.64526479943197      0.44433205812832     -0.14251935424279
  C   -3.01220714260348      1.02256240840474     -0.21911132893377
  H   -2.74704298663920      2.05150389809520      0.01932299376794
  H   -3.22645348528203      0.49485986752834      0.70635616871128
  H   -3.88805020755360      1.02498358607249     -0.86268199794576
  C   -2.20812536385401     -1.14580150513893     -1.20910422031544
  H   -1.44676635206092     -1.63688188210674     -1.81713465629322
  H   -3.16195404293367     -1.21230592961099     -1.73214163651098
  H   -2.28631119776528     -1.66177573401483     -0.25202456942591
  C   1.65605297568201      1.21434654304931     -0.18938659856157
  H   1.35489578975234      2.20630975175174     -0.52973426660155
  H   2.65640022580526      0.99535822170294     -0.55697384730692
  H   1.64493428100590      1.19835958049979      0.89864442600655
  C   1.14479001933010     -1.24464183450958     -0.26432016492467
  H   0.47119256593125     -2.02301181534583     -0.62090211376861
  H   1.17110432851457     -1.27278531458029      0.82336156313432
  H   2.13814229335086     -1.43317520439384     -0.66514506341497
  O   -0.74994103553372      0.40322726125872      1.11713978580558
  O   -2.54228694606648      1.53271224143378     -2.89967762437111
  C   -0.19789355421419      1.25159016584775     -4.24152674124457
  O   1.67468727659436     -0.09728687914287     -2.83398798915142
  C   -0.89656151369681      0.59284616353227     -5.23893142501111
  C   0.68110718103866      2.27719891405954     -4.54410452415698
  C   -0.71304302338093      0.97059192658640     -6.56024705866572
  C   0.86514563381092      2.64800756501094     -5.86760728458261
  C   0.16773317645217      1.99646231112194     -6.87558537739277
  H   0.31045765814622      2.28829635824921     -7.90762007415743
  H   1.55303104617358      3.44691232342866     -6.11013378574937
  H   -1.58495341442661     -0.20042885298020     -4.97808156797583
  H   -1.25861647122442      0.46188282435514     -7.34374364003884
  H   1.22131058102143      2.77161949627257     -3.74681452207921
