39
Coordinates from ORCA-job 389optt
  C   -1.56841499095306      0.47834827838132     -2.40086846743340
  C   -1.81767494234386      0.33682866617684     -0.88962633822502
  N   -0.34359589629600      0.91070823070280     -2.83096575459311
  C   0.71895767199142      1.23130133816909     -1.88613752416381
  C   0.73739600694261      0.27804622709422     -0.69862269285713
  N   -0.58845605152236      0.38342653715287     -0.07274219094028
  C   -2.70502797679074      1.51586011881962     -0.47468496556540
  H   -2.21135662359110      2.46636748121080     -0.68430186566127
  H   -2.89956168654380      1.44826944252908      0.59451024328097
  H   -3.64197444133401      1.47321781063475     -1.02687085066524
  C   -2.53957581360817     -0.98727400160923     -0.63245038827729
  H   -1.91273004598209     -1.83410891961148     -0.91444164560368
  H   -3.45329497852446     -1.01744524730381     -1.22034509638772
  H   -2.76986861603962     -1.05981233693418      0.42830918930591
  C   1.79018099621191      0.73857608311268      0.29779032052337
  H   1.56725495551546      1.74247478421436      0.65918751175136
  H   2.76751328102922      0.74044043919396     -0.18636656334744
  H   1.81756643957665      0.06954597666733      1.15414959790191
  C   0.99714624463508     -1.16744773665260     -1.13079489703350
  H   0.29617302667871     -1.49333403581816     -1.89985228987619
  H   0.90029090060987     -1.82378978188073     -0.26575354735680
  H   2.00806527813906     -1.26082920223055     -1.53049828964629
  O   -0.71020832102116      0.15714015075219      1.16595727558803
  O   -2.49000280099494      0.24442824510680     -3.15173335266431
  C   -0.09389388164301      1.14070735863000     -4.21678045355886
  C   -0.48859026581217      0.21759859043753     -5.17897494874553
  C   0.59600961224076      2.28936724103681     -4.58470435465742
  C   -0.17813604303283      0.46801017812614     -6.50646712490648
  C   0.90679849533155      2.53440906438428     -5.92172669620562
  C   0.51271213641532      1.60730112487963     -6.88536269573778
  H   0.75245000006737      1.78298829952934     -7.92688999550865
  N   1.64514394599265      3.66155874331120     -6.27606697423842
  H   -1.03558599176680     -0.66600515196581     -4.89079594309154
  H   -0.47953533924096     -0.24447107011377     -7.26337209421324
  H   0.89355018726947      3.00922495392304     -3.83157053144856
  H   1.66690912770076      1.15094395622484     -2.41765332992859
  H   1.57750434029086      4.43848400879510     -5.63770114826683
  H   1.54151708661993      3.95295014529502     -7.23528568347019
  H   0.62383497378247      2.25716400962868     -1.51405544407588
