41
Coordinates from ORCA-job 398optt
  C   -1.55118698882734      0.50104191925629     -2.40088529291648
  C   -1.79923716314839      0.41370225800580     -0.88555044608990
  N   -0.30560271992788      0.85275588666501     -2.84730701330075
  C   0.78113917499624      1.12916721658420     -1.91648867869176
  C   0.74909246201900      0.20439455755604     -0.70680742874430
  N   -0.56360346210723      0.40682683254103     -0.07684197972107
  C   -2.61068177084381      1.65486509784611     -0.49751338211048
  H   -2.06241037359552      2.56807732247038     -0.73538715941211
  H   -2.80099077495989      1.62748921692839      0.57421707965182
  H   -3.55260235405555      1.65457416338808     -1.04286452013585
  C   -2.59858595358199     -0.85657413335042     -0.58984726392455
  H   -2.02697097669146     -1.74739015178817     -0.85297925835896
  H   -3.51667190278287     -0.84564268034476     -1.17157466625107
  H   -2.82543683269754     -0.88721185758287      0.47368616244747
  C   1.83507188844113      0.62267521034904      0.27247709266400
  H   1.67588612354370      1.64605926331551      0.61222103178724
  H   2.80707264506474      0.55411442307084     -0.21754929766479
  H   1.82859102557114     -0.02736155369194      1.14371889577795
  C   0.91655427440512     -1.26420195356645     -1.10522282460491
  H   0.19307792120313     -1.56478736652808     -1.86366142062113
  H   0.78323606819807     -1.89234526654190     -0.22424554971850
  H   1.91790253561806     -1.43001934425750     -1.50555983932804
  O   -0.68996175935050      0.22038638473759      1.16789955456005
  O   -2.48738888701581      0.30043043148015     -3.14268990373501
  C   -0.05590752083695      1.04261946073840     -4.23891583322997
  C   -0.50410053802565      0.12790025054495     -5.17823256475890
  C   0.68694827483489      2.15782007691726     -4.63004305431797
  C   -0.20022258173295      0.33834853119873     -6.51819223637044
  C   0.98407559487304      2.34948557165801     -5.97421580846604
  C   0.53786420257605      1.43291405851868     -6.92417977278934
  H   0.78089046944853      1.60278813458907     -7.96401988336082
  O   1.69639220187152      3.40277044800627     -6.44677133815070
  H   -1.08890934438229     -0.72370366152068     -4.86796148067304
  H   -0.54588219077970     -0.37277831717616     -7.25694354691094
  H   1.01010064330448      2.86885900602908     -3.88414906225247
  H   1.71901434407381      0.97851108053569     -2.45094090801684
  C   2.15530906917561      4.36045334295024     -5.52111233961313
  H   2.69297969325272      5.10824814748520     -6.09738169693863
  H   2.83330790243900      3.91112332782854     -4.78984401659535
  H   1.32147081172011      4.83672172057502     -4.99802709087467
  H   0.75130676871318      2.16709294457932     -1.56733325823953
