39
Coordinates from ORCA-job 402optt
  C   0.43471959355701     -1.06596808413922     -1.41025439594937
  C   -0.80297947290161     -0.75790869299886     -0.55104019172048
  C   0.75793854655667     -0.03632827780620     -2.49034394882606
  C   -0.80893224940031      0.74867574180399     -0.21676164329385
  O   0.75216694749756      1.28118287622300     -1.97336826570894
  C   -0.50765899785229      1.61291602941095     -1.43162808014699
  N   -2.02970580338909     -1.13683249788045     -1.30281301377711
  C   -0.74297994950093     -1.59411491564490      0.72929551450783
  C   -2.03382534407088     -1.52639913385878      1.52920969422267
  H   0.10779208050242     -1.24893093632591      1.31926405134761
  H   -0.54486554620355     -2.63515309434843      0.45318712739203
  C   -3.35367644083768     -1.33574126619406     -0.64876061390979
  C   -3.17550632594894     -2.07002304977539      0.68526167945986
  H   -2.23547889336385     -0.49869308482089      1.84256258479098
  H   -1.94131595432241     -2.11515015819212      2.44302240764467
  H   -2.97317769736146     -3.12471283773421      0.47060309079514
  H   -4.12219734052705     -2.02140256600847      1.22425604004185
  H   0.31997228664644     -2.05330495379927     -1.86241950268557
  H   1.28250614730527     -1.11088654327317     -0.72093086937802
  H   0.04832217160860     -0.11285933993845     -3.31566327087478
  H   1.76500086835983     -0.20828092937630     -2.87031375448425
  H   -0.02180009385786      0.92317559118972      0.52253903770476
  H   -1.75437583378148      1.04776048915830      0.23503150012821
  H   -1.28842724502806      1.49611868656776     -2.19354284809152
  H   -0.45602583543616      2.66306740577217     -1.14430987399682
  C   -4.21016380826169     -2.18836849175742     -1.59018480266202
  C   -4.06834617901752      0.03049296579282     -0.47043093354944
  C   -5.58986302473275     -2.43735342667837     -0.97508287123442
  H   -3.71297570801694     -3.14018833578603     -1.78483097426102
  H   -4.29694272766774     -1.67291898829421     -2.54420323785474
  C   -5.57505557467974     -0.10363357070508     -0.71172103429981
  H   -3.65596819308182      0.74705820003833     -1.18385817244418
  H   -3.89169056637413      0.41258032305472      0.53681653927910
  O   -6.05499005952373     -1.33284229058477     -0.21263583588667
  H   -5.56758307302981     -3.28549910153106     -0.28954546284317
  H   -6.31078044014656     -2.66331100142207     -1.76870789890020
  H   -5.80370263605001     -0.01715858271811     -1.78060437304049
  H   -6.12222741792369      0.68110959344196     -0.19151454356033
  O   -2.05783020974399     -0.85875375086148     -2.54053885393465
