43
Coordinates from ORCA-job 404optt
  C   0.30332433551202     -0.89485399971491     -1.53918179326353
  C   -0.88572977082152     -0.54942958815289     -0.61795546878806
  C   0.52478664705047     -0.03948122489254     -2.78775202347759
  C   -0.87380260010223      0.95388803836041     -0.25910881889489
  S   0.60848940781223      1.68742376474783     -2.38581607230796
  C   -0.89074565313828      1.90105465781267     -1.45236822608766
  N   -2.15261530308679     -0.93395855506359     -1.30378438937852
  C   -0.72802009330254     -1.36636321588887      0.66968519013265
  C   -1.99882894073662     -1.41236197137219      1.50338743704273
  H   0.10579132756326     -0.94475335788498      1.23265321511745
  H   -0.44851095693366     -2.39046952709451      0.40404434674953
  C   -3.41105111921267     -1.33998982066820     -0.60941103027093
  C   -3.07860212083974     -2.09437963665630      0.68061221182540
  H   -2.31159375818947     -0.40967499876277      1.80623547375655
  H   -1.82025169327937     -1.97334872231739      2.42112298801907
  H   -2.72634671533290     -3.09594165464252      0.41834435873013
  H   -3.99797559580153     -2.21839435337730      1.25486911870461
  H   0.20004135603968     -1.93690611497914     -1.84889486236250
  H   1.20016938432242     -0.82575634532887     -0.91896476923647
  H   -0.26271027440085     -0.15508038239058     -3.52591555313772
  H   1.49277901027235     -0.26108773543366     -3.24050796709577
  H   0.04623503833807      1.13884494562481      0.30023260246385
  H   -1.69739952155358      1.19311142236547      0.41162857469285
  H   -1.72507493291733      1.73581030644877     -2.13240651228397
  H   -0.87252903434800      2.94515522074975     -1.13675316742003
  C   -4.17764266848353     -2.26981033452176     -1.57014092661199
  C   -4.25502301413181     -0.07024761906321     -0.30537102891438
  C   -5.65323957574302     -2.37422238561678     -1.20463620365389
  H   -3.72102818829582     -3.26002518972291     -1.54970935636378
  H   -4.08332536514414     -1.89684884908678     -2.58937300461922
  C   -5.16310140919542      0.33840059452500     -1.45982610144423
  H   -3.60234060020155      0.76459178488579     -0.06039779333600
  H   -4.87129947597292     -0.25236721014979      0.57912441895073
  S   -6.49804196801097     -0.84151186510298     -1.60674680475862
  H   -5.82525067147139     -2.56688652741491     -0.14642435576388
  H   -6.16350998423754     -3.13503442208850     -1.79390019099209
  H   -4.63541412574700      0.37361795084169     -2.41118126324204
  H   -5.65840230561219      1.29130920314396     -1.27481960553303
  O   -2.29285435135202     -0.51092323438467     -2.49432047201232
  O   0.54065851611231      2.46955987413291     -3.58785499488324
  O   1.70760367918237      1.87213432063225     -1.46896712058323
  O   -7.45484457233421     -0.56893855592604     -0.56589858306457
  O   -6.92181234227449     -0.89677468657177     -2.97891147640337
