35
Coordinates from ORCA-job 424optt
  N   1.21190380600328     -0.47024319557679     -0.03538882442601
  C   0.20733235854782      0.41583060955955      0.62529358029537
  C   0.92662724066976     -1.86090444303173     -0.48636905211859
  C   -1.16160605328646      0.26150150636688     -0.05756350992551
  C   0.69068232696741      1.85358703240545      0.46242726460582
  C   0.10253678691072      0.08144156740627      2.11848419102090
  C   -1.48015036264110     -1.18576180040975     -0.32599397855506
  H   -1.13855762499852      0.78625603170858     -1.01721202224413
  H   -1.93639681740878      0.70132919882491      0.56900791443562
  C   -0.44561809584129     -1.86488180932449     -1.18462590735905
  H   -0.35803443235151     -1.31856300710736     -2.12851595414400
  H   -0.75274794424583     -2.88865186968447     -1.39010563938994
  O   2.42525532587959     -0.15434391014396      0.15173295891746
  H   0.90393976991582      2.06931299769037     -0.58463240575381
  H   1.59498756820764      2.02581093702624      1.04079267833184
  H   -0.09218423206004      2.52815839587798      0.81151081662899
  H   -0.49958514132482     -0.80672317074028      2.30422545331224
  H   -0.37124957323722      0.91477773489351      2.63927980924424
  H   1.10075128006237     -0.06289226985410      2.53330243567857
  C   0.90695684128905     -2.84611848698379      0.69768802926540
  C   1.99397613983872     -2.30075188690956     -1.50360940767452
  C   2.28495123112825     -3.06286684951803      1.31196668746441
  H   0.54554339867613     -3.80198526080192      0.30301048866354
  H   0.17734882208041     -2.53259852605114      1.44305942385180
  C   3.35889104529185     -2.69523451354116     -0.93285415736429
  H   2.10763005578636     -1.51045617214588     -2.24900483091777
  H   1.56738633626520     -3.16830824260470     -2.01841492462344
  C   3.23457014848133     -3.63603857529215      0.26313259883487
  H   2.19839619519107     -3.74275687267631      2.16157407038375
  H   2.67906453674295     -2.11583758764774      1.69040124511360
  H   2.84831188491501     -4.60717123603056     -0.06685002670849
  H   4.21992321179514     -3.81798329635206      0.69537788519839
  H   3.89546278599876     -1.79886529338792     -0.63042711253897
  H   3.93796980766264     -3.17448192209136     -1.72540880702806
  O   -2.43951862691174     -1.75163581385242      0.13222902952485
