39
Coordinates from ORCA-job 425optt
  N   1.19073167950138     -0.51539426685165      0.00742311294874
  C   0.16680332330918      0.38403694122654      0.61559352901258
  C   0.92120841941922     -1.91325624161801     -0.41910753772890
  C   -1.19136255773652      0.17558509954491     -0.05703206478054
  C   0.62402617450551      1.82001229736727      0.36919456577094
  C   0.08837235609255      0.13856176449446      2.12710508643825
  C   -1.54422857053342     -1.29974304301193     -0.24980282690124
  H   -1.18034923675700      0.66124106366623     -1.03863848029982
  H   -1.95692292417257      0.66844312071125      0.54435209679887
  C   -0.45627549136763     -1.94845750597447     -1.09405027829894
  H   -0.35961296414839     -1.40932403280272     -2.04617831106899
  H   -0.69487081240476     -2.99065229326501     -1.31972050827013
  O   2.39894470697304     -0.19522400666672      0.22059256167746
  H   0.81942789973715      1.98161489503906     -0.69112713634774
  H   1.53280693260508      2.03861654540005      0.92428584458162
  H   -0.16509613607793      2.50108295644691      0.69062442727488
  H   -0.44607248148467     -0.77587420234319      2.37983168678886
  H   -0.43673398279258      0.96970837867478      2.59964750318245
  H   1.09645368003583      0.08623961955565      2.53945058264223
  C   0.96134171139666     -2.88335847873825      0.77951288502056
  C   1.97134327545093     -2.34070877109585     -1.46242470165731
  C   2.36475715116824     -3.09508898930307      1.33823610050867
  H   0.58001738677256     -3.84645938848587      0.42090904362813
  H   0.28253986025430     -2.55152539045064      1.56359869638094
  C   3.35971514205899     -2.70555597621315     -0.93322435299480
  H   2.04761312040146     -1.55247751980507     -2.21505091973117
  H   1.55115052804929     -3.22108826112942     -1.96162460771154
  C   3.28315722856377     -3.65649394133790      0.25736313570826
  H   2.31106313872524     -3.77860556858595      2.18775074649077
  H   2.76387912543428     -2.14667013844009      1.70621753964726
  H   2.89408623122203     -4.62828889209096     -0.06816343193534
  H   4.28257265549705     -3.83386746022739      0.65784415646430
  H   3.88391402870804     -1.79948171030675     -0.63765812834344
  H   3.92741708374288     -3.16639483786335     -1.74465613609884
  C   -2.95746038751351     -1.38351498159452     -0.80762244996009
  H   -1.60828264125623     -1.78735988003923      0.72435110438169
  O   -3.92313505890854     -1.20868944141043     -0.12788270842283
  O   -3.09650629085083     -1.62227453768467     -2.12757453725451
  H   -2.24106330362013     -1.76103292479075     -2.54879528754123
