41
Coordinates from ORCA-job 427optt
  N   1.24484173710628     -0.49938664186371      0.04160201564297
  C   0.24686528632251      0.42368330834496      0.65472485585200
  C   0.93354561800302     -1.88440096899290     -0.39980600789020
  C   -1.11374311994832      0.26236218464673     -0.02738607499291
  C   0.74839721673418      1.84799697172822      0.42679919987563
  C   0.15393326791207      0.16530632179359      2.16342376174388
  C   -1.51572302236530     -1.19925347552445     -0.23131921887332
  H   -1.07431754729335      0.75636140288231     -1.00386362232696
  H   -1.86157934865066      0.78352745622473      0.57445043110069
  C   -0.44263692948739     -1.87525758289640     -1.07583196222046
  H   -0.34931320022581     -1.34861967299717     -2.03128610796516
  H   -0.71495759148377     -2.90897602180654     -1.30138684076256
  O   2.46114212110604     -0.21502824843819      0.26167619353389
  H   0.95637398547300      2.01470890974366     -0.63040139048490
  H   1.65956870582009      2.03380472368235      0.98993932819568
  H   -0.02214506610861      2.54918296272254      0.75054381297568
  H   -0.41042805583824     -0.73433203872712      2.40295705397943
  H   -0.34586048847674      1.00809292317156      2.64320245753698
  H   1.15804378093084      0.07620057047487      2.57928628707101
  C   0.94727431592262     -2.86445366864387      0.79139892579117
  C   1.97394201023257     -2.33216468810155     -1.44422203786175
  C   2.34300979272881     -3.11895810449660      1.35134408210600
  H   0.54086418856991     -3.81358076680951      0.42341475844683
  H   0.27414315217514     -2.52171340369535      1.57570322040296
  C   3.35135085853558     -2.73894040068771     -0.91660167299827
  H   2.07197699098524     -1.54118228834747     -2.19129513547003
  H   1.52918905300982     -3.19614978590694     -1.95053142376043
  C   3.24822746025106     -3.69602488221616      0.26731243604448
  H   2.26986309900962     -3.80828706778549      2.19493071660846
  H   2.76762088307823     -2.18525720161272      1.72840997689676
  H   2.83431869706562     -4.65496552556048     -0.06570788965784
  H   4.24225706499306     -3.90250356343960      0.66770964436662
  H   3.89965207665753     -1.84969544496587     -0.61346619411591
  H   3.90809786559753     -3.20914098420417     -1.73047053590921
  C   -2.90825300797774     -1.24148248823107     -0.84229264990012
  H   -1.61304266505888     -1.69127100356272      0.73811313258965
  O   -3.87850942091385     -1.35845256725854     -0.13720788522813
  C   -3.03591965800321     -1.09767068959224     -2.34001870723627
  H   -2.44723613085317     -0.25353934914486     -2.70332166433688
  H   -4.08171410177836     -0.96932216187341     -2.60435887040032
  H   -2.64333987375700     -1.99327704803256     -2.82653639836913
