47
Coordinates from ORCA-job 432optt
  N   1.14557645915147     -0.51617167256926     -0.13156447765423
  C   0.18186457763145      0.50894183417233      0.36194144098050
  C   0.78712622611688     -1.93623400779560     -0.38329678140285
  C   -1.19271159401533      0.29642955494829     -0.27511091737724
  C   0.72098166879543      1.87427856190231     -0.05978931916736
  C   0.10728910050276      0.45838579621762      1.89334054881244
  C   -1.65363018520705     -1.15911913200669     -0.28244969698476
  H   -1.15724920116091      0.65211706912252     -1.30974156962191
  H   -1.91489458416781      0.92441668835475      0.25234811444457
  C   -0.60293188376208     -1.98075343261130     -1.02640237298371
  H   -0.52229570870921     -1.60254229152321     -2.05109463758331
  H   -0.91662558414666     -3.02422530128304     -1.09571878269197
  O   2.37286629343256     -0.24338887596551      0.03988970355946
  H   0.91506279519154      1.89146606330083     -1.13251190445310
  H   1.64672701777930      2.10609154045564      0.46124720992532
  H   -0.02419191080155      2.63549517735371      0.17606969374846
  H   -0.47389151044002     -0.38714684995200      2.25797750902675
  H   -0.36568090683429      1.37044867892357      2.26082075448245
  H   1.11496686076699      0.40070239685613      2.30627571105503
  C   0.80429221053305     -2.75052363690756      0.92738477322318
  C   1.79178549699120     -2.54719868578359     -1.37905550977605
  C   2.20516695635605     -2.97239739448297      1.48824614164672
  H   0.36195594080371     -3.72665596076544      0.69770416210869
  H   0.16079386116053     -2.28510411368336      1.67275091139488
  C   3.16974072035580     -2.92108546892307     -0.82945329347574
  H   1.89280703629897     -1.86386389986711     -2.22535781076765
  H   1.31282270915683     -3.45644828209046     -1.75893104487759
  C   3.06795467951584     -3.71285353566302      0.47092666077921
  H   2.13366273594589     -3.54384553831315      2.41609904730690
  H   2.66437145364873     -2.01082693409541      1.73038580151668
  H   2.61872233815884     -4.69329099624996      0.27350251499785
  H   4.06491926504396     -3.89706016992481      0.87517915963922
  H   3.74818769210386     -2.01644688028030     -0.65484585497659
  H   3.69590947796891     -3.50946585016248     -1.58488744378448
  C   -3.02799068750381     -1.31140065008945     -0.89254419087245
  H   -1.71896274690250     -1.51972430924594      0.74791358998691
  C   -3.27721563116079     -0.96144151626661     -2.21736985157055
  C   -4.09129787825516     -1.81036537494508     -0.14449104136879
  C   -4.53765086384759     -1.10535816948252     -2.77641427077437
  C   -5.35794415835654     -1.95992616642308     -0.68662252048174
  C   -5.58290837447228     -1.60646323949820     -2.00967304801050
  H   -4.71110109171406     -0.82833593491634     -3.81047721701400
  O   -6.84111294498491     -1.77110196682778     -2.50390167917279
  H   -3.92567173613517     -2.09090904133907      0.88942554527626
  H   -6.17968720242621     -2.34863870901193     -0.10031068058492
  H   -2.47692014685768     -0.56918250010988     -2.83395478507250
  H   -6.87047704154893     -1.49245687255240     -3.42410829141030
