47
Coordinates from ORCA-job 434optt
  N   1.15683011897554     -0.54100918959615     -0.17462321514217
  C   0.19232834568773      0.50676917426965      0.26990317254518
  C   0.79450736293865     -1.96746815769909     -0.38670859414124
  C   -1.16532009238652      0.30275275621368     -0.40875584234147
  C   0.76379838759166      1.85657567504311     -0.15919013563780
  C   0.06634239918533      0.48851108672217      1.79867526049401
  C   -1.63141627408228     -1.15353315093938     -0.40689950894402
  H   -1.09303830933022      0.68561991506723     -1.43144302685848
  H   -1.89990681785918      0.93163864649314      0.09937899734907
  C   -0.57004799466064     -2.02195766643568     -1.08535121496118
  H   -0.41643068035559     -1.71937002305705     -2.12690980986963
  H   -0.90210947493491     -3.06122348488424     -1.11526475279382
  O   2.38173765739312     -0.27287240627620      0.01714974032553
  H   1.00206253930875      1.84892248866406     -1.22310001355920
  H   1.67012176845123      2.09026480917110      0.39385232718667
  H   0.01819438692143      2.63027377181750      0.02984030724836
  H   -0.54847625888262     -0.33302885474560      2.16261618803327
  H   -0.39356545919570      1.42009674796179      2.13178825075337
  H   1.05832007663468      0.41387502895428      2.24546388429253
  C   0.75332557671525     -2.73559263833402      0.95083954484005
  C   1.83066649847704     -2.62337813370877     -1.31990215039180
  C   2.13009073442845     -2.94254800685938      1.57402019598010
  H   0.31662496055841     -3.71769008404137      0.73673837580372
  H   0.08382585173557     -2.24407336716351      1.65491286107307
  C   3.18317878672911     -2.98838903503137     -0.70499653802147
  H   1.97198073349879     -1.97278408377042     -2.18610054747669
  H   1.35714801846780     -3.54168064133594     -1.68452314376969
  C   3.02635544248445     -3.72710576757748      0.62088278659259
  H   2.01810791399569     -3.47682041306549      2.51967300611538
  H   2.58584355887186     -1.97463540751413      1.79707783406990
  H   2.57884938544186     -4.71245356794925      0.44587199778423
  H   4.00592866844558     -3.89966436719637      1.06999468723576
  H   3.76482220024076     -2.08317686143497     -0.54549248336041
  H   3.72935298863148     -3.61115393524553     -1.41718889692452
  C   -3.03123753151803     -1.34454221491636     -0.95829432381532
  H   -1.68756595681536     -1.47608341225224      0.63554395256119
  C   -3.40000554668491     -1.05312307948894     -2.27744738320175
  C   -4.02602637039287     -1.83521126825835     -0.11186194259827
  C   -4.70721762646709     -1.24719473292628     -2.71175430423177
  C   -5.33044544827757     -2.03322794489959     -0.53359923674216
  C   -5.66916176905851     -1.73452461116311     -1.84623693780363
  H   -4.94116906734707     -1.00654894331142     -3.74033185146473
  H   -6.68192822260675     -1.88111018927656     -2.19804271127812
  H   -3.75886876086164     -2.06678367437683      0.91298314155107
  H   -6.07231513273550     -2.41552770357566      0.15406465900947
  O   -2.53801469960565     -0.56820848364584     -3.21624865640602
  H   -1.65233686775158     -0.48848459842501     -2.85574394910910
