46
Coordinates from ORCA-job 440optt
  N   1.16255850458537     -0.43912577563458     -0.02839399559831
  C   0.12500453375526      0.50517061509659      0.46138840936889
  C   0.83514192366311     -1.78956768515179     -0.54425342110821
  C   -1.10422893911063      0.39265460362892     -0.43424559485570
  C   0.69438667935843      1.91524501892839      0.35164257077787
  C   -0.23249718875194      0.19875813532372      1.91886765922215
  N   -1.49630041273956     -0.99373810791521     -0.63329408643390
  H   -0.88655127979823      0.86208713622928     -1.40732334064420
  H   -1.91773072984321      0.94932138902826      0.02626093278546
  C   -0.45976896491132     -1.69316192677301     -1.35979155861073
  H   -0.24354055427836     -1.19840224192849     -2.32215854509828
  H   -0.78611399298415     -2.71101614831450     -1.56776301457940
  O   2.34878842963324     -0.22225782239257      0.36404847264804
  H   1.06732576285418      2.10302131510312     -0.65526799931464
  H   1.51418792199588      2.05213820872715      1.05246480417623
  H   -0.09270190806972      2.63621727708743      0.57851358589130
  H   -0.89684960151045     -0.66068641189617      1.99402347509203
  H   -0.73939287370738      1.06074532360453      2.35627939610268
  H   0.67641976950423      0.00796056818822      2.49045054573404
  C   0.65433541928897     -2.79787900090926      0.60735508029307
  C   1.95259677534932     -2.26942081548083     -1.48592661554758
  C   1.95954298306070     -3.13741455592176      1.31819232764211
  H   0.25476913479279     -3.71634894814416      0.16243319981198
  H   -0.10262108355598     -2.43620091655170      1.30029809625351
  C   3.23748778713527     -2.76066168252295     -0.81468666880397
  H   2.17708007289479     -1.46982459674528     -2.19545845559804
  H   1.52313805527836     -3.09730517196710     -2.06231175555573
  C   2.95373861445454     -3.73472952511064      0.32581524918436
  H   1.75573607790084     -3.84394097230343      2.12533254901317
  H   2.38412766187357     -2.23795181940808      1.77053183144415
  H   2.53417000081751     -4.66389879832680     -0.07737938941206
  H   3.88579514876442     -4.00043892545716      0.82760291229501
  H   3.78962866895272     -1.90668077507758     -0.42811539056583
  H   3.86119807621536     -3.24221195911409     -1.57124168142177
  C   -2.83802060785477     -1.21434084343943     -1.00253283793027
  C   -3.18546291802363     -1.91580619331818     -2.15715304474926
  C   -3.85903612471355     -0.73699364350744     -0.17384575564795
  C   -4.52397486084437     -2.14655497261820     -2.46373430687936
  C   -5.18324072619897     -0.96196929882995     -0.50367914742910
  C   -5.53454484288876     -1.66955470940809     -1.64453406168857
  O   -4.89085199852015     -2.83356596683966     -3.58036963311809
  H   -6.56547963694255     -1.86136384561541     -1.90574936406108
  H   -3.60526269874977     -0.22278253490420      0.74341058997311
  H   -5.96208206527045     -0.59448102790450      0.15210682818973
  H   -2.42430999363127     -2.27301237925356     -2.83921562288949
  H   -4.10909399922967     -3.11775959225974     -4.06339322835733
