32
Coordinates from ORCA-job 444optt
  C   -1.22060339995296      0.22425665462005      0.21968536892240
  C   0.08190083424641      0.86394385398187      0.70936604137583
  C   -0.02248731106069     -1.57250706765249     -0.98756972759492
  C   1.35556123299486     -1.02770240642379     -0.60857799218889
  C   -1.07802715963117     -0.48587340255091     -1.11846313831911
  H   -1.97516546637388      1.01247242829112      0.16991191433956
  H   -1.56718213081381     -0.50359078841012      0.95697547862200
  H   -0.34182236890120     -2.28040698884830     -0.21582030377626
  H   0.08498287370393     -2.13761685493031     -1.91605001806836
  H   -0.81045567706239      0.22014881364981     -1.90814828299600
  H   -2.03340048490926     -0.92673414186380     -1.40743670430533
  N   1.22982076173633     -0.06195267267543      0.51627564590989
  C   -0.00913510424486      1.18702979292629      2.21039657726948
  C   0.36675523303800      2.16428536377662     -0.05145435457107
  C   2.02861945103591     -0.32505041482335     -1.79243778583853
  C   2.24316770250871     -2.17131288647908     -0.12635029928429
  O   2.31431862080427      0.28569491426773      1.07177497110432
  H   0.28548308795172      2.03684471747774     -1.13058395675573
  H   1.37175974477338      2.51155591424687      0.18721184225497
  H   -0.35046350998669      2.92801668509410      0.25415784325152
  H   1.82945649810407     -2.61353239031912      0.78115261102467
  H   3.24833473929352     -1.81639623454585      0.08884301096974
  H   2.29121411506755     -2.93858251036628     -0.90056663210506
  H   1.38396847907189      0.42688520639667     -2.24600852777657
  H   2.28364915449884     -1.06065179135293     -2.55702401089466
  H   2.94404907747418      0.15901527690307     -1.45276462509632
  C   0.00008507867983     -0.02044713092533      3.13889455619676
  H   -0.81439531553617     -0.71434156317957      2.92677711783449
  H   -0.10993947219595      0.30299900687349      4.17419547725376
  H   0.94239996969533     -0.56025769735528      3.05243449117709
  H   -0.92777285197591      1.76470261475145      2.34876349210781
  H   0.82397359796616      1.84106569944504      2.46893991995679
