38
Coordinates from ORCA-job 446optt
  C   -1.22622943999930     -0.08419394727487     -0.02684047908996
  C   0.00736783792144      0.66679202031920      0.48213841141716
  C   0.12572478153163     -1.80890082684790     -1.18016765332951
  C   1.44775675894590     -1.17342351420312     -0.74315574079425
  C   -0.99665153580213     -0.79689157421018     -1.35112466521420
  H   -2.04814198648425      0.62947515256917     -0.10207866233778
  H   -1.52504106540673     -0.82726622065337      0.71699411195079
  H   -0.18677739838821     -2.54591516706591     -0.43622308754826
  H   0.31339425768075     -2.35217791240596     -2.10906375081260
  H   -0.75866841957334     -0.08140952091221     -2.14152237677000
  H   -1.91085444925856     -1.30615924277607     -1.66050944486022
  N   1.21931481005815     -0.18826473573989      0.34867572978947
  C   -0.16365256331508      1.01434354351950      1.97150806162278
  C   0.26320941065717      1.95663328501376     -0.32925828219216
  C   2.12203989582075     -0.45873729731248     -1.92083472267317
  C   2.41337721005152     -2.25011962776676     -0.21930112974969
  O   2.26226653348045      0.24156295873620      0.92593478043061
  H   1.43619599596272      0.19758130736467     -2.45501997613967
  H   2.49921613436635     -1.20115916590485     -2.62629000596051
  H   2.96056836152737      0.13269181593445     -1.55358273697711
  C   -0.02335656721328     -0.15918487759473      2.93360630545890
  H   -0.62798087014928     -1.01713976802645      2.63453953372644
  H   -0.34115100423183      0.13497170008279      3.93413390215799
  H   1.01423655942927     -0.48200033145419      2.98885745277000
  H   -1.15333646329022      1.46580004527945      2.07726785537283
  H   0.56729561797769      1.77977124470774      2.23750147851151
  C   -0.73453078421731      3.08513575574294     -0.08866558560640
  H   -1.76237739003551      2.77636002432713     -0.28569509291147
  H   -0.51456298611388      3.92182934774796     -0.75208556400845
  H   -0.68529176747889      3.45647215896443      0.93437218961452
  H   0.27574135640059      1.71377755030164     -1.39320115068172
  H   1.26868481767472      2.29468350567233     -0.06971041707247
  C   2.05120975906949     -2.85873842186868      1.12878794493761
  H   2.15346368185986     -2.11745950516952      1.91899994741983
  H   2.71902233042963     -3.68994946960163      1.35633630461945
  H   1.03021306752134     -3.24252812742720      1.15347243716492
  H   3.41054609655432     -1.81350147392864     -0.15505309448505
  H   2.45268941603664     -3.02731068813875     -0.98814282775017
