39
Coordinates from ORCA-job 463optt
  C   -1.35987907076334     -0.09513336938444      0.38109027712914
  C   -0.06752839994972      0.71328610465027      0.55013475233652
  C   -0.41960704147191     -1.67110687359820     -1.25563450766328
  C   1.01565315681386     -1.12527963064427     -1.09852064802962
  C   -1.51938845455269     -0.64837576290611     -1.02304547077790
  H   -2.19539946499810      0.55273508512312      0.65148522340170
  H   -1.36304021864819     -0.93046268750120      1.08822915403523
  H   -0.56638430827930     -2.48580370989793     -0.54184848381778
  H   -0.49525755377875     -2.11547222341329     -2.25076137585918
  H   -1.47842673805875      0.15547298152690     -1.75949774856332
  H   -2.49382282226818     -1.12807068736481     -1.13143003515866
  N   1.04882609148005      0.09385588964997     -0.22080907621186
  N   0.35612946552083      0.80787879123266      1.96220389582364
  C   -0.23653219860565      2.13126480329358     -0.00056244583135
  N   1.62253916559942     -0.72119621758375     -2.36933641182523
  C   1.89282726632557     -2.18155138219588     -0.42703477544157
  O   2.17729292404603      0.64228607835822     -0.08874361299843
  H   0.73672440097551      2.61676620288271     -0.01520099098279
  H   -0.91693186736016      2.71231906606272      0.61775384720507
  H   -0.64890231993565      2.10664678804073     -1.00928964497252
  C   1.02199796987247     -0.36987840159954      2.48587840928366
  C   -0.70940939603501      1.21330327462391      2.86328343427526
  H   -1.23128033747164      2.09240676701484      2.49229353712972
  H   -0.26796382145651      1.47492888175774      3.82516236855206
  H   -1.45399922180244      0.42164875682911      3.04178926470408
  H   1.95369209787402     -0.54757817324034      1.95474107401112
  H   0.39961594981603     -1.28066313609643      2.44686371590674
  H   1.26122445637128     -0.18563047001170      3.53313119897234
  H   1.53560141041837     -2.34640362411262      0.58817040150382
  H   2.92637452068039     -1.83980681622400     -0.39485333776717
  H   1.83024327802499     -3.13028812051268     -0.95896556025048
  C   0.86579449555203      0.26131491549036     -3.11560128959591
  C   2.05407875550047     -1.80411226476137     -3.22865260052802
  H   0.62006444674617      1.10653237410794     -2.47500095942137
  H   -0.06258094791247     -0.13976284194522     -3.55461733596073
  H   1.48481692914984      0.63301049329224     -3.93232933361742
  H   2.81524730574187     -2.41232200378098     -2.74673608702954
  H   2.50146084478235     -1.36841687144448     -4.12186185007441
  H   1.23428925205691     -2.46342198571781     -3.56093697189153
