31
Coordinates from ORCA-job 468optt
  C   -1.43591951840539     -0.01164946344978      0.25899445607768
  C   -0.12266654516798      0.74198851097916      0.46487720482678
  C   -0.39460233037393     -1.71352617980248     -1.20152660253083
  C   0.99285269026558     -1.08161244412908     -1.09643333983012
  C   -1.52141525417867     -0.69843210971976     -1.09484871841102
  H   -2.24117331485927      0.71013809989354      0.40082307316330
  H   -1.53927999638738     -0.76634009817959      1.04163806361546
  H   -0.51079639117323     -2.45025790591109     -0.40374264080620
  H   -0.42499470472068     -2.25734842203274     -2.14644806316934
  H   -1.46320016703339      0.03241691338362     -1.90490496954838
  H   -2.48460363860932     -1.19968748865245     -1.19772035543016
  N   1.03985220109470     -0.07604783456419      0.00684706302644
  O   0.05349887538957      1.06921732426180      1.81830943550652
  C   -0.10504630988712      2.07319950904861     -0.27253267067157
  C   1.41388299124087     -0.40501257847373     -2.39311757558242
  O   1.96783328794424     -2.06332571047797     -0.86105634584812
  O   2.18143215972601      0.39787698537855      0.26887452874596
  H   2.36140389831926      0.10473958147939     -2.23065417858660
  H   1.54017662753218     -1.16713324636091     -3.16086718926657
  H   0.66608652883440      0.31475481102103     -2.72459278268428
  C   0.46438935394648      0.03701540716005      2.68997778141414
  H   0.29547081791804      0.40532370450786      3.69944392989362
  H   1.52404215382287     -0.18393729559662      2.55322786292441
  H   -0.11292595431892     -0.88200875240258      2.55121584770016
  H   -0.34008396099772      1.94297871660842     -1.32841323714007
  H   0.88376060067704      2.51626436739529     -0.17229621115254
  H   -0.84449284587361      2.73346756672017      0.17862160833146
  C   2.06178137347938     -2.58752855006940      0.44671417030227
  H   2.67055656695017     -3.48588494876658      0.37202744219647
  H   1.08554399288087     -2.85955090746912      0.85928336293620
  H   2.54439681196494     -1.87281756177938      1.11502904999737
