28
Coordinates from ORCA-job 481optt
  C   -1.70729573995676     -0.03747092101418     -0.00996521058497
  C   -0.38702974505461      0.74455884177085      0.03903396577247
  C   -0.75703303823484     -1.65814478650564     -1.63890907765351
  C   0.60981923936120     -0.96694415941625     -1.65694096730306
  C   -1.91468358208196     -0.70906212866228     -1.36121354481872
  H   -2.51525000964396      0.65448087706262      0.23177636987727
  H   -1.69690692666121     -0.81072354939308      0.76596231593768
  H   -0.74381784280185     -2.43172000929054     -0.86473974094564
  H   -0.88746543621234     -2.16608285854780     -2.59671320276393
  H   -2.00071631292392      0.04022599477607     -2.15137575503947
  H   -2.85440029177612     -1.26300711186561     -1.35438136699389
  N   0.72311477075236     -0.07631866668258     -0.47346401022599
  O   1.87937169877258      0.35180860310994     -0.17305827941967
  C   -0.07110974956941      0.96221206156022      1.51939403482582
  C   -0.47419868587351      2.08745310122176     -0.68054323245435
  C   0.80972325400413     -0.13512966148288     -2.92824467250816
  C   1.71723591636305     -2.00992923854368     -1.55335560883000
  H   -0.93090212792157      1.98656365264918     -1.66366306970912
  H   0.52390910315313      2.51037001970161     -0.78930116899377
  H   -1.07718151432942      2.76646635270496     -0.07905509485628
  H   1.65249584059623     -2.54155295639513     -0.60352294608697
  H   2.69716031790096     -1.54320913265189     -1.62186062314880
  H   1.60550813407715     -2.72865021832110     -2.36627631660489
  H   -0.01841521708300      0.54816066164184     -3.11086847477533
  H   0.89731095187210     -0.80114302329856     -3.78788539426694
  H   1.72826491118250      0.44553528774230     -2.84164278100187
  O   -0.44499545520512      1.91405389771858      2.13870819421135
  H   0.47656753729419      0.12947907041129      1.99735565836079
