27
Coordinates from ORCA-job 482optt
  C   -1.65999265438944     -0.01502627245758      0.06093643891916
  C   -0.35655454476641      0.79795386712060      0.02419574509565
  C   -0.75107227228993     -1.69189595123269     -1.54716195538728
  C   0.58769556873526     -0.94387837796188     -1.64444627657093
  C   -1.91123439590181     -0.74939703432840     -1.25068631233016
  H   -2.47345486796885      0.66936318935631      0.30449041709030
  H   -1.60107427579056     -0.75205262092351      0.86918839939156
  H   -0.68968494199629     -2.43526671273140     -0.74492955248481
  H   -0.89831056573479     -2.23470350176108     -2.48156621963464
  H   -2.04503493686941     -0.03808084932078     -2.06826029633013
  H   -2.83707014130219     -1.32100549838597     -1.17780044652534
  N   0.73778303990930     -0.02972090384759     -0.50322376409868
  O   1.91491628026163      0.39074330263530     -0.27651905173758
  C   0.01379216731251      1.08800569804717      1.47908740605195
  C   -0.49333159592025      2.10149840280823     -0.75584314183857
  C   0.76130810152607     -0.21018688695649     -2.97026872553629
  C   1.68371462396737     -1.99604515127368     -1.47370589525431
  H   -0.95704172664662      1.93908967342045     -1.72748871843665
  H   0.49013381873555      2.54805411076401     -0.89890946490873
  H   -1.10814517208980      2.79088043910440     -0.17901097723259
  H   -0.11196747341918      0.39436997469039     -3.20980048048352
  H   0.91233067356533     -0.94545718844380     -3.75928678347458
  H   1.63912573731238      0.43329762470097     -2.92128175344163
  O   -0.34854708227442      2.06547047085779      2.06297571323583
  H   0.59078418278179      0.28665161190847      1.97619506647017
  O   2.16920053754195     -2.58852464921245     -2.39075611997682
  H   1.94862191571084     -2.21898676657680     -0.42380325057131
