30
Coordinates from ORCA-job 48optt
  C   -2.29935853933337     -0.01532229402992     -0.21982444642785
  C   -1.24815622412156     -0.79845807937301      0.34347156934467
  C   -2.12826489727419      1.25325267823205      0.21187465044611
  C   -0.49966904291315      0.04152350313162      1.08497387097080
  O   -1.02670803632954      1.29507271631448      1.01221395014807
  C   -1.33378275603231     -2.23237498047833     -0.07011837959995
  C   -3.21490446847632     -0.83118106672885     -1.07441197193631
  N   -2.55232819252371     -2.16423496911512     -0.93450465024999
  O   -3.00798476459472     -3.18579895225159     -1.50506257379806
  C   -0.15220512793036     -2.70269610674198     -0.91324733354615
  C   -1.59856556308124     -3.19137570823280      1.08708763626109
  C   -4.63995621914531     -0.92547642890575     -0.53600888866675
  C   -3.21153180771919     -0.42685395019051     -2.54594379781525
  H   -2.44011709007836     -2.84441326376822      1.68651339192211
  H   -0.71658397821991     -3.25495810090343      1.72525556665036
  H   -1.82689270539375     -4.18137912726766      0.69226843572594
  H   0.03372276774287     -2.00869585343383     -1.73273622633073
  H   -0.37020606205650     -3.68854048508144     -1.32407782702846
  H   0.74394981790523     -2.76294671695091     -0.29472451184964
  H   -4.63357169473496     -1.21104423366216      0.51575414802418
  H   -5.19458057199932     -1.67229191842969     -1.10432051406220
  H   -5.13935544435086      0.03956364711182     -0.63359313796416
  H   -2.19066696919157     -0.35435672900138     -2.92064404299374
  H   -3.69860471468547      0.54180297614177     -2.66689979838439
  H   -3.75274324900442     -1.17230870882540     -3.12879239400649
  C   -2.85615598099424      2.52717330217134     -0.00133832095914
  H   -3.70636145740541      2.35434900417385     -0.65903486284984
  H   -2.20921923963087      3.27668526807789     -0.45966215760420
  H   -3.22406273680311      2.93193632397206      0.94272025915718
  H   0.38215494837571     -0.06426174595490      1.69165235742284
