30
Coordinates from ORCA-job 50optt
  C   -2.28504501734084     -0.09397327372275     -0.26244586032297
  C   -1.29908806364858     -0.81058177252799      0.29943046925412
  O   -2.21472412760916      1.20634910577270      0.05786129849063
  C   -0.50863788907085      0.11587959060945      1.06094660694046
  C   -1.11824142750972      1.31372254314161      0.87000499523571
  C   -1.39868537087749     -2.25833192502393     -0.07159592127461
  C   -3.25079291255150     -0.84444853624843     -1.11018161647067
  N   -2.62602267357981     -2.19166772602813     -0.93085947092222
  O   -3.10159441678108     -3.21282963514333     -1.48570319542242
  C   -0.22947606853809     -2.76627973839709     -0.90974638310778
  C   -1.66563907339093     -3.18489330592722      1.11042375734202
  C   -4.67743363855088     -0.86304586398415     -0.56996327861335
  C   -3.22376528784094     -0.45746306211430     -2.58569831376226
  H   -2.50080595987397     -2.81529998588240      1.70530220243823
  H   -0.77997532429184     -3.24296703300884      1.74487816731680
  H   -1.90429863157076     -4.18359491814063      0.74449467874318
  H   -0.04220746690497     -2.09822080201269     -1.75033652577709
  H   -0.45954250027581     -3.76125650806790     -1.29104889266453
  H   0.67145898460229     -2.82183919504447     -0.29694935212125
  H   -4.68549713721137     -1.14311416550843      0.48317635557177
  H   -5.26420330246664     -1.58767797012826     -1.13441057579329
  H   -5.12885066191714      0.12365880596711     -0.67714521319272
  H   -2.20100673883035     -0.45087978422239     -2.96199516401437
  H   -3.65578200615968      0.53478476019668     -2.71863020990454
  H   -3.80677946173188     -1.18056274098517     -3.15595909572258
  C   0.70797079021563     -0.15923077893904      1.88118175754371
  H   -0.89889285965797      2.30294924085546      1.23287052645882
  H   1.50439358966329     -0.58538912354991      1.26895820876286
  H   0.48910952457475     -0.87086550266434      2.67900976992877
  H   1.08471512912633      0.75515930072877      2.33753027505956
