30
Coordinates from ORCA-job 52optt
  C   -2.26297265244300     -0.16199993739541     -0.21386012496262
  C   -1.25200779931283     -0.87821881089333      0.29863461510537
  O   -2.20694391585040      1.13062080028693      0.15504361940163
  C   -0.47109849878091      0.04289811999061      1.07073539498383
  C   -1.09489932640328      1.24394476517618      0.94815904127788
  C   -1.33528053630581     -2.31337286928124     -0.12156736933670
  C   -3.23631867799418     -0.89822560964580     -1.06490148678598
  N   -2.57762444900749     -2.23675054242016     -0.95791345310854
  O   -3.05230322802547     -3.24753724859736     -1.53250393622326
  C   -0.17319746244807     -2.77359905811560     -0.99570062557347
  C   -1.56921910960742     -3.28295572659534      1.03258860869581
  C   -4.64666797506386     -0.97146353770496     -0.48718302775337
  C   -3.26105413192901     -0.45301110809826     -2.52398454768759
  H   -2.40330537249635     -2.94857685985271      1.64943009642641
  H   -0.67505540721881     -3.34323583174816      1.65439945311712
  H   -1.79399535137925     -4.27354207550024      0.63720451189730
  H   -0.01360703474606     -2.07652958221122     -1.81818475579087
  H   -0.39273110313371     -3.76036108652721     -1.40353888429835
  H   0.73971445042963     -2.83035900462487     -0.40139095842429
  H   -4.61865151153221     -1.29505624902360      0.55307342053399
  H   -5.23392036724578     -1.68506750465029     -1.06504659737820
  H   -5.12220170330220      0.00837930985587     -0.54008265928193
  H   -2.25004777157590     -0.40794711064387     -2.92834042258833
  H   -3.71876968655553      0.53338088677188     -2.60475412910931
  H   -3.84445525516393     -1.16612190798831     -3.10636202799290
  H   0.42511349358578     -0.13713091435845      1.64078859173666
  C   -0.80656838840421      2.59382280999833      1.48878485825620
  H   -0.64756223830733      3.31286554339301      0.68370021122905
  H   0.09105127152269      2.55554496582003      2.10241100402476
  H   -1.63305026130500      2.95491537458357      2.10283157960972
