39
Coordinates from ORCA-job 53optt
  C   -2.48936453745655     -0.18309886988098     -0.15853515317770
  C   -1.40183565682181     -0.81656392744087      0.30250672035769
  O   -2.53032461377710      1.10149165322110      0.23060814319843
  C   -0.66161132788419      0.15241587299142      1.06428133082460
  C   -1.39847973338453      1.29541730689104      0.98779770011626
  C   -1.36344722647776     -2.24040226805593     -0.16267550792299
  C   -3.41892435336755     -0.98434794124929     -1.00020050462186
  N   -2.65758780099006     -2.26937467578998     -0.92085567455195
  O   -3.04589622495474     -3.29846896050155     -1.52719143113362
  C   -0.21789378791061     -2.54581960375321     -1.12445046135864
  C   -1.41988318846930     -3.27228454658444      0.95864974789016
  C   -4.80832905138030     -1.17418848124357     -0.40009946686894
  C   -3.50356790600741     -0.52498904785698     -2.45313112315402
  H   -2.22014554786640     -3.03384902536372      1.65953827895076
  H   -0.47111537708144     -3.28778082010958      1.49754139067778
  H   -1.60004640619905     -4.26054917207135      0.53497318089944
  H   -0.18160375503985     -1.80590287591024     -1.92387387008606
  H   -0.36277734844414     -3.53413046317303     -1.56112622226874
  H   0.73304067459278     -2.53148657021005     -0.59005531248582
  H   -4.73594896952070     -1.50351704925955      0.63618298560618
  H   -5.34821907020643     -1.92657203092390     -0.97507608138665
  H   -5.36023292830494     -0.23440817854477     -0.43498626941457
  H   -2.50635870273316     -0.39873536420182     -2.87431633654867
  H   -4.03464973332292      0.42547070192307     -2.51273397808291
  H   -4.04244890195038     -1.27247068634407     -3.03527032119518
  C   0.60394162504037     -0.06168298822529      1.83509394442993
  C   -1.20790399927232      2.66153406459538      1.54011537504403
  C   -1.01075843511267      3.72073555423385      0.45401702905572
  H   -0.34415964410707      2.63608051457323      2.20619180221756
  H   -2.07211893120600      2.92335377188149      2.15662345802268
  H   -0.12555733904084      3.49877805212953     -0.14249582655058
  H   -0.89042629618018      4.71002712451090      0.89534858069033
  H   -1.87067591139620      3.74673182617769     -0.21457480136275
  H   1.23762540724601     -0.76595358902045      1.29095734336110
  C   0.33842168801986     -0.59269418047925      3.24512419711603
  H   1.16489541350468      0.87299427184196      1.89463791197076
  H   -0.23375489091923     -1.52055007231671      3.20614864596881
  H   -0.24354738718000      0.12961470283055      3.81909808539109
  H   1.27035017556224     -0.78562402929060      3.77748249038228
