30
Coordinates from ORCA-job 58optt
  C   -2.39510384015389     -0.09910585566938     -0.41287765474898
  C   -1.42394541629148     -0.83841850962567      0.17902024779972
  S   -2.21840773643383      1.56662424623142     -0.09826479922715
  C   -0.48719816709817     -0.05870094478646      0.92184303152089
  C   -0.81248953432933      1.26376738116231      0.84782480224093
  C   -1.58928844991962     -2.30414743175815     -0.11092571147366
  C   -3.38471636096330     -0.89820667575619     -1.20195952080648
  N   -2.81562455263763     -2.25131077386723     -0.95433559028938
  O   -3.33443961591021     -3.28548400912386     -1.44378459604086
  C   -0.44639538943501     -2.90163422239493     -0.92835804401993
  C   -1.87072532989488     -3.15107157362263      1.12759714789002
  C   -4.80749064332957     -0.83469949510333     -0.65304958622943
  C   -3.36204273003145     -0.60173363760084     -2.69918728591045
  H   -2.67224948085280     -2.71036112807947      1.72047443977654
  H   -0.97472934702778     -3.22563198685288      1.74473611788930
  H   -2.16859652123260     -4.15309394694049      0.81789109889934
  H   -0.23210173492198     -2.28171171255284     -1.79900242023420
  H   -0.72834195167653     -3.89982483069228     -1.26422138380127
  H   0.45436021042975     -2.97709549331031     -0.31824272227840
  H   -4.81429524524706     -1.04129902779958      0.41697583946525
  H   -5.42376756114988     -1.57510128682195     -1.16296168608727
  H   -5.22878029650105      0.15716981009042     -0.82217181624572
  H   -2.34240029932916     -0.64262948960106     -3.08173955732147
  H   -3.76907898213753      0.39219816570873     -2.88961382446324
  H   -3.96862422380833     -1.34130280952888     -3.22176722732844
  C   0.68520697268056     -0.60691177732617      1.67680783462761
  H   -0.29231103155299      2.08944482378306      1.30748492903166
  H   1.36753925269917     -1.13719860499657      1.01013773172161
  H   0.36210426830057     -1.31140817944335      2.44516532293160
  H   1.24191373775606      0.19210897627860      2.16368488271184
