37
Coordinates from ORCA-job 62optt
  C   -2.60547373773041     -0.19561277033538     -0.37431912342802
  C   -1.69357251741004     -0.95149479542761      0.28677136087818
  S   -2.40765131655722      1.47082778467335     -0.07088337951303
  C   -0.79023279218733     -0.18173406960220      1.07478006350930
  C   -1.06898339201647      1.15391768953456      0.97536357855429
  C   -1.85074879768510     -2.41360474550615     -0.02506470054854
  C   -3.52910673890498     -0.97852625700795     -1.25482303713965
  N   -2.96329271405984     -2.33465477279975     -1.01222689238864
  O   -3.45690606771415     -3.36165111146897     -1.54195073265222
  C   -0.62593529175953     -3.02781513913781     -0.69852217074050
  C   -2.30647873941027     -3.26130282360569      1.16141446421751
  C   -4.98788277171822     -0.94569936465538     -0.80546821709628
  C   -3.40662170736968     -0.63610587551901     -2.73687563584324
  H   -3.16443973259773     -2.80107615793001      1.65137225534340
  H   -1.50190573306747     -3.36612824856006      1.88966313636478
  H   -2.59104374395605     -4.25178148198939      0.80540203320882
  H   -0.30953308731571     -2.41646819100517     -1.54439272257391
  H   -0.86973159063669     -4.02807797022012     -1.05741223721410
  H   0.19817987275629     -3.10062026188094      0.01388014831202
  H   -5.06744891936768     -1.18848088981248      0.25399628199295
  H   -5.56051408326926     -1.67261146865260     -1.38154269557421
  H   -5.40496319705936      0.04877167908404     -0.96934210281587
  H   -2.36238523571191     -0.65696566640689     -3.04819903054037
  H   -3.80931115602819      0.36019039082684     -2.92431114258864
  H   -3.96828324152687     -1.36327108374590     -3.32336542927545
  C   -0.37640225516071      2.28415191063744      1.67385218552471
  N   -0.45680070910698      3.50477591643803      0.87627649445395
  H   0.64607708762288      1.95977037456093      1.89503024603675
  H   -0.87561874238624      2.48255314465090      2.62673207962619
  C   0.36292128911552     -0.73765565213448      1.86395908137980
  N   1.62749688951894     -0.44788341310943      1.18015556279694
  H   0.19495345255047     -1.80770225929063      2.02836815154539
  H   0.40233000110907     -0.27088322407447      2.85061696579345
  H   1.59258755834350     -0.79224142476660      0.22706372700047
  H   2.40221569373810     -0.90962626078970      1.64238672993745
  H   0.09374896891214      3.40901392139956      0.03049083437158
  H   -0.09061280195273      4.29536256762917      1.39083386908471
