24
Coordinates from ORCA-job 636optt
  C   -3.25072663863138      1.98443323441624     -0.12460104693951
  C   -4.66014272951625      2.00623611775409     -0.07690780994994
  C   -5.36616202514048      0.83895960992451     -0.01838139298872
  C   -2.56608805796954      0.80011424360704     -0.12083818217323
  C   -4.69530386697094     -0.40718941976126     -0.00407703353742
  C   -3.27768902335841     -0.42782289269279     -0.05876061607805
  C   -5.39894787395746     -1.63317012484201      0.06460243779593
  C   -2.59896593680469     -1.67567052356589     -0.03763938996681
  C   -4.72431334105877     -2.82011301303061      0.08499278498344
  C   -3.31487211648405     -2.83906522954183      0.03734963523291
  H   -5.17735731232514      2.95670673664440     -0.08076650748190
  H   -6.44846954690312      0.84864158041739      0.02324385186387
  H   -2.70330140815946      2.91904902959830     -0.16096200407215
  H   -6.48109775278542     -1.61123097697031      0.10581015178119
  H   -5.26676752839416     -3.75449482799477      0.14466728208973
  H   -2.79254827194586     -3.78823457061508      0.06475483318337
  C   -1.06378127119927      0.78282016599410     -0.19935768666979
  C   -1.09686847569308     -1.70366135834777     -0.11606225064296
  N   -0.51097955729148     -0.45132214825689      0.33985027076816
  H   -0.77014906152941     -1.88361704573728     -1.14977877064458
  H   -0.67813218992510     -2.49061084954199      0.50835107579495
  H   -0.62378969901245      1.59823836459007      0.37160508681268
  O   0.70168002844655     -0.45547354154062      0.69815234307183
  H   -0.73315634339056      0.88450743949294     -1.24246706223299
