27
Coordinates from ORCA-job 638optt
  C   -3.38767599645502      2.07566216311957     -0.32202989229119
  C   -4.79650161637441      2.07257772379315     -0.29040827002702
  C   -5.47600238213395      0.89706491532459     -0.14493237390897
  C   -2.68021064979141      0.90870634619248     -0.21849838536255
  C   -4.77905395450856     -0.32853979064981     -0.02726160607025
  C   -3.36021513226454     -0.32801253964300     -0.06903267030760
  C   -5.46465338475551     -1.55621851150748      0.13003601516137
  C   -2.65090697398675     -1.55809313236471      0.05000179383574
  C   -4.76829178857123     -2.72302046635232      0.24417816031989
  C   -3.35757018198836     -2.72110950314187      0.20624459626020
  H   -5.33404104930774      3.00790901265803     -0.37432192230637
  H   -6.55864271561750      0.88399069718837     -0.11315372439378
  H   -2.85686225016517      3.01501091084485     -0.42361175509732
  H   -6.54738175815432     -1.54966354270815      0.16012179008291
  H   -5.29200428867518     -3.66181498707464      0.36832761746217
  H   -2.83842394744137     -3.66412068945628      0.30479120410627
  C   -1.18048085353028      0.91763719765242     -0.26830688626420
  C   -1.13534495123513     -1.56442106005465     -0.03255851698538
  N   -0.61312295233633     -0.25117797711770      0.38898087749907
  H   -0.85248063878929     -1.67774994302154     -1.09111331913349
  C   -0.46829678771402     -2.66658998244733      0.77022236044989
  H   -0.76803111994067      1.78924770255099      0.23579450723728
  O   0.58434878677752     -0.16019701496758      0.78495926105057
  H   -0.78933964197781     -2.62555617599986      1.81119439167150
  H   0.61041571536105     -2.54634432801682      0.73159531283445
  H   -0.72439891470899     -3.63977698733173      0.35697599406431
  H   -0.82858057171493      0.93123996253106     -1.30946455988749
