28
Coordinates from ORCA-job 642optt
  C   -3.74038943095948      1.91233970748462      0.05400869062574
  C   -5.14177303213188      1.76219107652513     -0.01199033887280
  C   -5.70497313103256      0.51867478556643     -0.01799190776110
  C   -2.92503209210538      0.81679516457746      0.11291633734047
  C   -4.89244473294906     -0.63912322938853      0.03073264266268
  C   -3.48305843652290     -0.48944305002421      0.09340211992609
  C   -5.44643727132166     -1.94096824420981      0.01289113674013
  C   -2.66435221072735     -1.64809708429947      0.11561147381906
  C   -4.63745352623453     -3.04092940655867      0.04343890092512
  C   -3.23621281287372     -2.89085768168508      0.08802462690926
  H   -5.76747089785176      2.64375839814559     -0.05913884090264
  H   -6.78040102672448      0.39805089323071     -0.06636313244097
  H   -3.29921369746266      2.89936577967357      0.04647623122270
  H   -6.52340222205461     -2.04765260448024     -0.03189275901288
  H   -5.06592460760678     -4.03428956785738      0.02303092288140
  H   -2.60422349683978     -3.77118351053233      0.09266697056925
  C   -1.42799040892816      0.99544797142204      0.23075210415105
  C   -1.17196225955743     -1.48911606928787      0.17445401420132
  N   -0.74330154872323     -0.19083756544211     -0.33306777888834
  H   -0.66382186860381     -2.23785135894405     -0.43033489364755
  H   -0.81212182391885     -1.59292533226740      1.20770869145033
  O   -1.03534265337113      2.15053821813003     -0.40673237471392
  O   0.46353959384704     -0.07364884276681     -0.68623307400859
  C   0.14311559289883      2.76105862198135      0.09604382167029
  H   1.01761979397712      2.14148882270599     -0.09265539273907
  H   0.04363663046696      2.94989391158006      1.16991843262594
  H   0.23996771031953      3.71063584342583     -0.42487155459309
  H   -1.14230613300819      1.03604435329512      1.29782492986012
