32
Coordinates from ORCA-job 645optt
  C   -3.51140420951032      2.09258711021228     -0.47020826978333
  C   -4.92006940311828      2.03601580799849     -0.49339031844748
  C   -5.56137045701160      0.84375231776904     -0.31711193251708
  C   -2.76672936843666      0.96151042377405     -0.27624642253488
  C   -4.82566547340246     -0.34695883110307     -0.10636403037028
  C   -3.40692346360321     -0.29066578267014     -0.08327927573747
  C   -5.46927813246629     -1.59240371154879      0.08154762996745
  C   -2.66516424602833     -1.48363416131815      0.13845367500844
  C   -4.73565358457022     -2.72535048464466      0.28575337535506
  C   -3.32706710797917     -2.66856641850950      0.31574686703865
  H   -5.48767258902550      2.94422403593638     -0.64768084861875
  H   -6.64314608981857      0.79020268357903     -0.33198978913699
  H   -3.01191104210801      3.04472021148555     -0.60586398849166
  H   -6.55179133683900     -1.62794753699313      0.06205598761968
  H   -5.23095299849839     -3.67649926905317      0.43132744884346
  H   -2.74865415750952     -3.56520368975724      0.49434241407440
  C   -1.26761651479420      1.01911594392281     -0.28889443805058
  C   -1.14310700230995     -1.46295343474792      0.14658922452235
  N   -0.67648270587064     -0.08128717662087      0.46119565906304
  H   -0.78592047107259     -1.67381158794011     -0.87163673495729
  N   -0.58575958780678     -2.45330050304148      1.00525680485010
  H   -0.89545715088325      1.93750816264475      0.16160382647140
  O   0.51625952809493      0.06552052406943      0.85412198190638
  C   -0.79588680681127     -2.22751449958501      2.42596351662534
  C   0.76682061538767     -2.89060736224940      0.70175741061052
  H   -1.83297538420922     -1.94623322057637      2.60805069852424
  H   -0.14097528121898     -1.44231716117209      2.82046443409913
  H   -0.59419131979724     -3.15542642535320      2.96295585318431
  H   0.87167373323437     -3.03484049390087     -0.37389386808289
  H   0.93766178095995     -3.85261257146576      1.18898918583894
  H   1.52912557109844     -2.18113966532670      1.03643915776294
  H   -0.89034534407561      0.97514676618588     -1.32033523463718
