26
Coordinates from ORCA-job 649optt
  C   -3.41675780336677      1.92733498505838      0.49299934138091
  C   -4.81318299519855      1.92683265589697      0.29955494126623
  C   -5.47087007731726      0.76417288884499      0.01817475178271
  C   -2.69789570254753      0.76359604132390      0.41332916917804
  C   -4.76597112979591     -0.45953112954720     -0.06170944923659
  C   -3.36262989480622     -0.46537705159544      0.15127199640789
  C   -5.42631432999988     -1.67990526672216     -0.34162247413565
  C   -2.66423972365608     -1.70087934648130      0.10846885407392
  C   -4.72746720871368     -2.85101401210617     -0.40000386512166
  C   -3.33616530155615     -2.85901698062795     -0.16952237618993
  H   -5.35644815629905      2.86005166154703      0.36566887494845
  H   -6.54164879081504      0.75951847682335     -0.14505021673513
  H   -2.90607598779007      2.85998912443285      0.69841440017945
  H   -6.49640065523004     -1.66514222769586     -0.50829448666537
  H   -5.23582685678370     -3.78031076364997     -0.62037486458033
  H   -2.79325820840637     -3.79602239774647     -0.20898825772686
  C   -1.19222732458968      0.78624119408762      0.59723970202454
  C   -1.19632645030838     -1.72409264889505      0.42212109687811
  N   -0.56786138023404     -0.44456247175204      0.13418475642345
  H   -0.66731555330691     -2.46882918322348     -0.16964389851437
  H   -1.03480185251929     -1.95911411881540      1.48264116172582
  C   -0.58801491469173      1.92764429910285     -0.21187050253407
  O   0.68826666662871     -0.41444819322904     -0.02632190465084
  O   -0.41296044959228      3.01875334429703      0.24371118210980
  H   -0.36474895994338      1.68021239793591     -1.26394520165575
  H   -0.93187695916065      0.95205872273668      1.65004726936723
