33
Coordinates from ORCA-job 656optt
  C   -3.30858381309584      1.92889937810337      0.37573782051983
  C   -4.71510399540331      1.97758959526921      0.45112559127791
  C   -5.45562818795891      0.84983307175370      0.23653381784194
  C   -2.65766240712397      0.75308407094359      0.11480263702832
  C   -4.82180210240124     -0.38335310635312     -0.04331277131921
  C   -3.40454002216721     -0.44034015130763     -0.07639649010786
  C   -5.56400890436590     -1.56109081689701     -0.30417885220098
  C   -2.76236789566498     -1.68520445969342     -0.32911281821419
  C   -4.92657895090910     -2.73306062615547     -0.59182444768735
  C   -3.51615242480566     -2.79357544641977     -0.60095147722626
  H   -5.20434499667985      2.91985291700615      0.66017693335843
  H   -6.53779522703130      0.88456769062900      0.26829501484025
  H   -2.73541254210193      2.83933585688814      0.50803064026775
  H   -6.64580159263809     -1.51032031825964     -0.28223840418961
  H   -5.49843537023876     -3.62581885945915     -0.80856368195667
  H   -3.02379968483611     -3.73483775190735     -0.81520810032880
  C   -1.15658745680751      0.72628888163917     -0.01342991467607
  C   -1.25964232880535     -1.75447635316212     -0.23550480777769
  N   -0.70427701124904     -0.47937777914163     -0.68896131939610
  H   -0.86276417964298     -2.50376372793525     -0.92334293509585
  C   -0.77597221584215     -2.08454453672902      1.19996982215360
  H   -0.79833113872098      1.56606674758265     -0.60660721015020
  O   0.41668191109769     -0.46199855166623     -1.27659757899157
  H   -1.24793882804967     -1.36232028383438      1.87621466554792
  C   0.74019541562214     -1.95533344516042      1.31071813514194
  C   -1.21935500121259     -3.48437384437611      1.61440255959793
  H   1.08978166802833     -0.94994124953871      1.07863316062244
  H   1.23253970210331     -2.63781986780045      0.61437787961237
  H   1.06147367400966     -2.20838822646294      2.32189901148287
  H   -2.30346357897898     -3.58367501218507      1.63739658786727
  H   -0.83698337933727     -3.71683467500313      2.60879772934237
  H   -0.81915583796971     -4.23050366947044      0.92230149382671
  H   -0.67740329682267      0.78653454910350      0.97376730898856
