42
Coordinates from ORCA-job 657optt
  C   -3.56251390566858      1.89712570651653     -0.22926316403641
  C   -4.90533044539896      1.90679552085164      0.19424239050305
  C   -5.58201913845796      0.73317411034174      0.36071519273586
  C   -2.88109849593820      0.72424935569886     -0.43784900696424
  C   -4.93144567721325     -0.50086575709014      0.13662443621805
  C   -3.55583488587673     -0.51031124031067     -0.22146509044779
  C   -5.63181678925359     -1.72756171498421      0.23474895183940
  C   -2.90488769239726     -1.76179181754138     -0.40090434716348
  C   -5.00317950172781     -2.90892836710795     -0.02950331043107
  C   -3.62816242711028     -2.92222485206205     -0.34361214419218
  H   -5.40414168952697      2.85357829615863      0.35486570088273
  H   -6.62643689980805      0.72918340633174      0.64774841903692
  H   -3.07541950193177      2.84128507408915     -0.42620954018929
  H   -6.68099693353085     -1.70590539413548      0.50322600603400
  H   -5.54944404787551     -3.84190761828617      0.01642138933658
  H   -3.13093957165014     -3.86833480775273     -0.52027313353559
  C   -1.49372766650895      0.76291170114199     -1.04389799479752
  C   -1.41151661902423     -1.79019920282141     -0.56791724790624
  N   -0.95900253695381     -0.58625045983124     -1.26199502887753
  H   -1.11884379498235     -2.60778582368358     -1.23107788090754
  C   -0.68402236279736     -1.99417319645840      0.78834523180037
  C   -0.42620954043984      1.66030290384860     -0.34993574908422
  O   0.03723518682500     -0.68741004360463     -2.03650567263522
  H   -1.09959184483847     -1.26410084435421      1.48940886830181
  C   0.81926833006280     -1.77368247678673      0.65134472919208
  C   -0.95121631750300     -3.38903496939751      1.34957911579801
  H   1.06307454484494     -0.77242471263520      0.30032621015131
  H   1.24359242265580     -2.48036824633720     -0.06511413909185
  H   1.30503753490243     -1.92950048659792      1.61575179968052
  H   -2.00179246283817     -3.54825338338483      1.58509529682523
  H   -0.37727410990783     -3.53345737932033      2.26552010335058
  H   -0.63528393002983     -4.15552697070520      0.63640932285922
  C   -0.43548925085779      3.10225930936857     -0.86051999167573
  H   0.51906638758139      1.22569300130079     -0.68356224175794
  C   -0.47203514775437      1.63813964127715      1.17286719980202
  H   -1.40649381653392      2.06121992266252      1.54553974508514
  H   0.34907054350000      2.23454702307121      1.57396451355859
  H   -0.37310409696735      0.63098072523313      1.57397028908690
  H   -0.50151354683087      3.14219961175990     -1.94871490205099
  H   0.48983231022830      3.59810578655852     -0.56368636459837
  H   -1.25435393121198      3.68803652758643     -0.44199607838848
  H   -1.60274868125450      1.15624214139213     -2.06002188334670
