26
Coordinates from ORCA-job 660optt
  C   -3.33720572333906      2.02896474290801     -0.24180301112854
  C   -4.74699570214720      2.05747923745002     -0.21509919113912
  C   -5.45663821184352      0.89572344915422     -0.10908127230592
  C   -2.65697563466108      0.84396816075586     -0.17860684740159
  C   -4.79003359330940     -0.35017062710172     -0.03199090236673
  C   -3.37262040128019     -0.37887961773747     -0.07887034391353
  C   -5.49726044509416     -1.56948835630946      0.09361540589694
  C   -2.71247415908463     -1.63175528078283     -0.00485706741112
  C   -4.83099720652881     -2.75915870978850      0.17464357598407
  C   -3.42214550247012     -2.79086487179564      0.12411866631054
  H   -5.26078327672938      3.00810735378879     -0.26918292681596
  H   -6.53922200536957      0.91018479521385     -0.07732334202037
  H   -2.78585454859917      2.95973299303799     -0.30728680895763
  H   -6.57960845449743     -1.54005187702953      0.12886863087996
  H   -5.38055976327376     -3.68541218429681      0.27723372229298
  H   -2.89248620792259     -3.73171774282031      0.19132109789112
  C   -1.15368651747886      0.82312811376999     -0.21796807071248
  C   -1.20885190204000     -1.68558181443732     -0.11016322018702
  N   -0.63433183252555     -0.40200268545214      0.37282790287991
  O   -0.88796515256632     -1.82598753856495     -1.46842198099987
  O   -0.66773832596834     -2.69425401291780      0.64899087617959
  H   -0.72519144844003      1.64794807556316      0.34806397426660
  O   0.56690691121046     -0.43402026142374      0.77067684622661
  H   0.16220490504302     -2.34578374793153      1.01798313748976
  H   0.05461767360651     -2.03065812341571     -1.52848538054696
  H   -0.79184347469071      0.88390053016359     -1.25106347039120
