27
Coordinates from ORCA-job 661optt
  C   -3.49159900252842      2.02834175615000     -0.18829907694388
  C   -4.90116980527645      2.01471224872767     -0.13471595460563
  C   -5.57604848918026      0.83118653076396     -0.04806947828623
  C   -2.78546216439256      0.85907300945930     -0.15969383294264
  C   -4.87576356533661     -0.39797555098888     -0.00178217293966
  C   -3.45844841184238     -0.38751473760239     -0.06009558428595
  C   -5.55031206376594     -1.63631398874755      0.11324566334345
  C   -2.76675550244648     -1.62296695795232      0.01292663534274
  C   -4.85385794522676     -2.80949250098117      0.18041072153148
  C   -3.44521077768583     -2.80196226466439      0.13333662821335
  H   -5.44279964611402      2.95094135926062     -0.15899512056033
  H   -6.65827562561384      0.81412801722806     -0.00440377310563
  H   -2.95752148825171      2.96759539882631     -0.24035596607178
  H   -6.63285488190954     -1.63493233947914      0.15430637535729
  H   -5.37861953297024     -3.75073357175254      0.27509297292711
  H   -2.89030272132419     -3.72822730541614      0.20056342634861
  C   -1.28443577048936      0.88825746614172     -0.24852858742549
  C   -1.26212079299270     -1.64119874628764     -0.06946011757736
  N   -0.72728004643756     -0.32815177783225      0.37705305120100
  O   -0.91018936422683     -1.82102009247704     -1.41414971758656
  O   -0.71228877539428     -2.60916716395341      0.73766626315333
  O   -0.77265165807353      2.00678898022888      0.38841710906663
  O   0.49688260175914     -0.30089945396344      0.69930885328890
  H   0.13283593482185     -2.26087980979099      1.06500413176175
  H   0.04197781465752     -1.98222920562952     -1.45438332344598
  H   0.17241356634624      1.85185068743796      0.52410178833203
  H   -0.96696188610515      0.85372001329435     -1.30163091409054
