32
Coordinates from ORCA-job 663optt
  C   -3.61529291275493      1.93645236696869     -0.92024091479276
  C   -5.01455366718510      1.89834217985389     -0.75411753404372
  C   -5.63052786217314      0.74348231246377     -0.36345199772281
  C   -2.85290305701714      0.82220182892706     -0.69571045929559
  C   -4.87568401556839     -0.42750150705852     -0.11912174737774
  C   -3.46580962265178     -0.38881733666456     -0.28952729514144
  C   -5.48539953426915     -1.63411714884761      0.29711085045039
  C   -2.70796131306628     -1.55887662164470     -0.03658203929556
  C   -4.73108918449017     -2.74729037197139      0.53649249270324
  C   -3.33203852635361     -2.70767996675094      0.36823703433657
  H   -5.59657162826897      2.79210502843041     -0.93627761350149
  H   -6.70513362013878      0.70690124656775     -0.23189108878478
  H   -3.12731636923747      2.85600023061404     -1.21757120892455
  H   -6.56085183271307     -1.65673161177875      0.42489009214579
  H   -5.20247986918741     -3.66661559147290      0.85800373054919
  H   -2.73441580872658     -3.58787534257016      0.56869704606493
  C   -1.35728332429411      0.90641695249169     -0.91624877984006
  C   -1.20715824105925     -1.57525047100487     -0.23596268642912
  N   -0.64640642218904     -0.20558150723171     -0.24705870091480
  H   -0.96571123213595     -2.02854152101930     -1.20475991941135
  O   -0.54550139908295     -2.35792156065149      0.69677011379924
  O   -0.82091587730653      2.12365364978956     -0.52635803461722
  O   0.61072501679131     -0.11759976391952     -0.20412702557848
  C   -0.55975613885999     -1.85679976177056      2.02327408172645
  C   -0.82567682803165      2.36300890100676      0.87129871791741
  H   -0.08943876371897      1.73129545493072      1.37049907900146
  H   -1.81559946533815      2.18791100099736      1.30229510750197
  H   -0.55647983222299      3.40800460231523      1.00278704241250
  H   -0.17735641211369     -2.65487822808525      2.65469681296319
  H   -1.57402878832781     -1.59916451595965      2.34132540545610
  H   0.08695597191162     -0.98235756547831      2.10904186032902
  H   -1.13389944021975      0.83135463852329     -1.98707242168599
