28
Coordinates from ORCA-job 665optt
  C   -3.51161706416017      2.10525771238185      0.16054039160878
  C   -4.90833858703572      2.03027379489427      0.00091655269090
  C   -5.52280734870156      0.81293002473354     -0.08772788786944
  C   -2.74903156353582      0.96988597133171      0.22362149806187
  C   -4.76831766970245     -0.38147892054060     -0.03696874661421
  C   -3.35730629899799     -0.30639021182321      0.10921873656511
  C   -5.38669486617401     -1.65160211142573     -0.13153329127352
  C   -2.60063947552734     -1.51100189108246      0.13420602281125
  C   -4.63896965208435     -2.79161091579774     -0.08994654584486
  C   -3.23528854654477     -2.71965336168543      0.03857385417029
  H   -5.49088420395020      2.94099095972715     -0.04281178605127
  H   -6.59801247412496      0.74353277562718     -0.20016131368846
  H   -3.02587549611798      3.07057375589283      0.23633045920285
  H   -6.46364969627977     -1.69851350482095     -0.23873701948500
  H   -5.11607502953062     -3.76022206620634     -0.16129540680557
  H   -2.64428691324297     -3.62531043317081      0.05573764241234
  C   -1.26025598278851      1.10040990227980      0.41256209498648
  C   -1.09474633607795     -1.44967118638713      0.21606394094966
  N   -0.68088296933499     -0.17636002844244      0.86900502889543
  H   -0.67615698049037     -1.41412203268055     -0.79986960963132
  N   -0.54050126045656     -2.59444434836871      0.87171564944951
  N   -0.63257378396992      1.62457102419213     -0.78038370794260
  O   0.51245299479382     -0.11447886824813      1.28655922974253
  H   0.37572446649523      1.63303843352881     -0.67183420768612
  H   -0.87814649356302      1.08693465507485     -1.60338039045055
  H   -0.92416852934270     -2.67294457782324      1.80842882267623
  H   0.46134011597867     -2.47194335945061      0.96483200435080
  H   -1.04523035553299      1.79046880828998      1.22970798476888
