40
Coordinates from ORCA-job 668optt
  C   -3.41767670483192      2.06229226302158     -0.58264982603890
  C   -4.80992491953595      2.00607618312448     -0.80707779242782
  C   -5.49289870944868      0.84350841025943     -0.59377902662654
  C   -2.72860539792343      0.94778023014101     -0.19099417269050
  C   -4.81116846222960     -0.33071369493439     -0.19030460350050
  C   -3.39968692576356     -0.29178534517075     -0.04255589217797
  C   -5.49744156268889     -1.53280015240516      0.09403013953847
  C   -2.69060983594490     -1.47546253288892      0.29327622888304
  C   -4.80775673790342     -2.63377893985177      0.51735076998060
  C   -3.40132518332916     -2.60761553913703      0.60484260043540
  H   -5.33531130773068      2.89802929921841     -1.12201481818497
  H   -6.56758869797067      0.80181232873623     -0.72300873098629
  H   -2.89428459350392      3.00450395020058     -0.69471150242829
  H   -6.57518161129395     -1.55865776094233     -0.01172707053825
  H   -5.33588138831045     -3.54514114146562      0.76591114762513
  H   -2.86538576109581     -3.49585929236961      0.91035514491099
  C   -1.29477680230273      1.02973367245777      0.22970666312825
  C   -1.16826720123199     -1.57967481931827      0.12752606231278
  N   -0.56686865952558     -0.21666782801223      0.04066476435601
  N   -0.83282485395803     -2.23232345490986     -1.13988762436739
  N   -0.60289408617244     -2.33017718647685      1.22698997807017
  H   -1.24071612905097      1.30789336278572      1.29077801768093
  O   0.69277367113811     -0.13656270789267     -0.01429825070921
  C   -1.24945267621485     -1.50205617044701     -2.32350192609197
  C   -1.19396064132153     -3.63398220481386     -1.25407577745844
  C   -0.82067024601723     -1.70252430914878      2.51877508606905
  C   0.78840091092161     -2.76051120315057      1.10613371005279
  H   -1.87105551758731     -1.45168351225488      2.65878818571051
  H   -0.21523871743322     -0.79148184949857      2.63797955492113
  H   -0.52908796885183     -2.40299877766990      3.30164792937054
  H   1.01582873083701     -3.03301667441412      0.08083666220229
  H   0.93009100521853     -3.62820200165935      1.75483719865516
  H   1.48754496865457     -1.97411407509405      1.40524566803366
  H   -0.87203732309348     -0.48160742913156     -2.30085360563846
  H   -2.34284344762862     -1.47656727979715     -2.44650568704703
  H   -0.82302737713063     -1.99848275372239     -3.19513775830539
  H   -0.93628871620385     -4.17233311684677     -0.34522648369416
  H   -0.62872085687111     -4.06137218782755     -2.08397951512200
  H   -2.26354657164990     -3.78300897781795     -1.46022750729251
  H   -0.74982369501941      1.78612321912474     -0.33492794061031
