30
Coordinates from ORCA-job 673optt
  C   -3.39850026191739      1.94946683001911     -0.28607128948362
  C   -4.80629688207088      1.92551858562878     -0.23280132222662
  C   -5.46674856644116      0.74298328887243     -0.06603492940575
  C   -2.67262022606291      0.79420256427118     -0.16141099140718
  C   -4.75263818558635     -0.47202041544358      0.05214457966729
  C   -3.33307807461661     -0.45073053690150      0.01558424322422
  C   -5.42350956456066     -1.71021345386298      0.18620253266063
  C   -2.63224420845140     -1.68122654654177      0.12382176242891
  C   -4.72280777318896     -2.87850169754637      0.26594167276223
  C   -3.31467042748122     -2.86352342660291      0.23277175358962
  H   -5.35622668676089      2.85196488317452     -0.32868939723046
  H   -6.54883434340058      0.71392391342489     -0.03000916957942
  H   -2.88575807385522      2.89198023552544     -0.43211002253581
  H   -6.50625590828558     -1.71215141663316      0.21369209597527
  H   -5.24088713031294     -3.82368037375386      0.35486251454372
  H   -2.76635063681023     -3.79520392829086      0.28861294413266
  C   -1.16224743361424      0.83995104415163     -0.25412994988741
  C   -1.12718603753549     -1.69756430170433      0.06783034936576
  N   -0.54792473772329     -0.37772518183379      0.25425748347964
  C   -0.57494529171525     -2.28556328562224     -1.25302680065712
  C   -0.58170105610673     -2.55722346451139      1.22301150189982
  C   -0.61956460734421      1.99384017244420      0.58417004870875
  O   0.70334802006455     -0.34287259764082      0.47373132991155
  O   -0.31913751085685     -3.71374218491664      1.10026684167156
  O   -1.22053771551374     -2.94566027301244     -2.00243978617234
  H   -0.49026545650655     -2.01337419261264      2.17884852530602
  H   0.48757762854764     -2.03523693461187     -1.42577278719807
  O   -0.42629322768648      3.08129225111224      0.13080633979333
  H   -0.46244148609361      1.75671786329421      1.65113057887967
  H   -0.84162413811255      1.00324258012460     -1.28991065221688
