34
Coordinates from ORCA-job 674optt
  C   -3.48293039245918      2.06716094095953      0.04761378329555
  C   -4.88292883846293      1.98866357687267     -0.10648313039504
  C   -5.50359169328861      0.77305034231872     -0.12910428264721
  C   -2.72881850935890      0.93314515040433      0.16728628005674
  C   -4.75520851102630     -0.42316215449242     -0.01342826102928
  C   -3.34436106853083     -0.34479023775722      0.11887084050444
  C   -5.37720178399055     -1.69301492108268     -0.01360055342268
  C   -2.58966049558004     -1.54404080957818      0.21583975407304
  C   -4.63241903047079     -2.82986186222808      0.11853715054822
  C   -3.22994831676816     -2.75460504091107      0.23129551023633
  H   -5.46022056254902      2.89881943353752     -0.20044505262926
  H   -6.57937802622971      0.70398202551199     -0.23430221369828
  H   -3.00129672706539      3.03738352881496      0.07900810574766
  H   -6.45453446481894     -1.74547965520989     -0.11266105578972
  H   -5.11241885592844     -3.79923345205207      0.13220892145006
  H   -2.65343450212059     -3.66543348647137      0.33524000426084
  C   -1.24951515308320      1.00883923447718      0.40638188399113
  C   -1.07780074181956     -1.49454542449786      0.30180335760329
  N   -0.57503417919870     -0.18188320151016     -0.09377616896265
  C   -0.50323126141185     -2.53872293975737     -0.68768269994578
  C   -0.57544129867082     -1.85448963194794      1.74128544668559
  H   -1.03950629049201      1.10365378138695      1.48123114851161
  O   0.63895478629434     -0.08555564306746     -0.44426675350901
  O   -1.33886816784088     -2.31280644520032      2.54192929959050
  O   -0.06089936760457     -3.57147231516357     -0.26427965479410
  C   -0.59497233768093     -2.21241855841663     -2.15182270844876
  H   -1.51447458752032     -1.67138407362438     -2.37496525693107
  H   -0.53978518118373     -3.13466123696153     -2.72410179916934
  H   0.24610627620783     -1.56808659613714     -2.41009203993067
  C   0.87257195383396     -1.58927590880471      2.04550422913688
  H   1.50762395999131     -2.03321816207098      1.28036059738819
  H   1.09960332001397     -2.00033635858587      3.02511330301847
  H   1.06818510047543     -0.51529958967671      2.03548601808966
  H   -0.79493505166172      1.85628969092182     -0.10221400288538
