30
Coordinates from ORCA-job 677optt
  C   -3.42667083437431      1.96470858154562      0.45166747506445
  C   -4.81838526001779      1.92525684633445      0.22149443954489
  C   -5.44686784214445      0.74120751605461     -0.02272565186875
  C   -2.67904513330424      0.81901627601079      0.42098092268356
  C   -4.71213625597924     -0.46741762628362     -0.05148315420341
  C   -3.30945332038448     -0.43259229309132      0.16577739040377
  C   -5.34825715605867     -1.70896899015444     -0.28107609133101
  C   -2.59183244223809     -1.65400914037937      0.12678614557561
  C   -4.63077141453931     -2.87059730297645     -0.29497779201956
  C   -3.23855095194822     -2.83870994002005     -0.09327890198101
  H   -5.38040223974043      2.84906777840927      0.24794236086549
  H   -6.51593767862402      0.70416110484698     -0.19214782122082
  H   -2.95662125909193      2.91333715501293      0.66727797854770
  H   -6.41925628637259     -1.71935649236168     -0.44192106255096
  H   -5.12379181463305     -3.81825355379418     -0.46415196480946
  H   -2.67326288937048     -3.76254261680952     -0.10505689384232
  C   -1.18467835843305      0.82953795229270      0.72307274267401
  C   -1.10557171163402     -1.65300683601960      0.32133030467837
  N   -0.53599748382968     -0.33100785786383      0.09853194645513
  H   -0.62438311210097     -2.29937192459236     -0.41729796758414
  C   -0.66683224070239     -2.20210125521258      1.71009208154219
  C   -0.53816071177249      2.17069839126244      0.33845589655147
  O   0.71308281887535     -0.28251675027844     -0.14889803302580
  O   -0.74359109684820      3.12752817490128      1.02245096667161
  O   0.16245836911134      2.24349412376972     -0.78739374586948
  H   0.50535691769079      1.36627500239779     -1.02575658781352
  O   -1.39656155852898     -2.82659420289969      2.41138450129733
  O   0.60390501220228     -1.95869436137878      2.03424236010022
  H   1.06469661578409     -1.46805834048811      1.33169912460157
  H   -1.03328068099272      0.73557058176543      1.80722903086286
