28
Coordinates from ORCA-job 682optt
  C   -3.44579268527185      2.04327236520113     -0.28870360460224
  C   -4.85482659632889      2.03607685544962     -0.23768481734944
  C   -5.53383242407167      0.85951271121455     -0.09809318815887
  C   -2.74154835135609      0.87427138945842     -0.20796388942133
  C   -4.83686098285220     -0.36737074337170      0.00454417575980
  C   -3.41958956853851     -0.36376200943233     -0.05560150209451
  C   -5.51639881584289     -1.59714526971942      0.17933795566723
  C   -2.72949092359073     -1.59621261052613      0.07750712822320
  C   -4.82344685806557     -2.76610271427980      0.30919348757823
  C   -3.41315338665268     -2.76389013264103      0.26484428549256
  H   -5.39356581580353      2.97199785623278     -0.30399086261464
  H   -6.61608888807651      0.84760787536407     -0.05343745257486
  H   -2.90907759152293      2.97822273761945     -0.37794240672333
  H   -6.59896583500328     -1.59008674253835      0.21838627772929
  H   -5.35001388724670     -3.69992395691460      0.45466240065768
  H   -2.86236158851099     -3.68628514007239      0.39650535682605
  C   -1.23993187202680      0.90215250969851     -0.28732143436202
  C   -1.22315117951051     -1.62027773973112     -0.02584414473962
  N   -0.68063133257598     -0.29724160018586      0.36732992170782
  N   -0.83960713163044     -1.80994129732856     -1.40838311027793
  O   -0.70294471641264     -2.56206078225056      0.85530943143371
  O   -0.73574676796892      2.03597704197006      0.33173954903990
  O   0.55030116220604     -0.26316119833201      0.66226857620455
  H   0.20953963773522      1.88478712743968      0.47087651797034
  H   0.16857166112184     -1.91498417839649     -1.47528372685236
  H   -1.28200271076611     -2.64309391367564     -1.77812223226687
  H   0.19868545183196     -2.27693557173272      1.06867234634725
  H   -0.91667800326855      0.84583713148045     -1.33661503859959
