34
Coordinates from ORCA-job 685optt
  C   -3.40755470392521      1.88529340005468     -0.69762363905775
  C   -4.81696333722569      1.88236408029816     -0.73719931485546
  C   -5.51379080724764      0.76028364771319     -0.39012236021075
  C   -2.71859288371985      0.75790537225971     -0.34597435020404
  C   -4.83416905689477     -0.41967814401236     -0.00609091854218
  C   -3.41630418854242     -0.43396171455641     -0.01526381771175
  C   -5.53055482504317     -1.58129259193614      0.40877225193310
  C   -2.74278047139853     -1.62771846713995      0.35565413380706
  C   -4.85231305383929     -2.69465050589479      0.81416509304454
  C   -3.44110842598463     -2.71840590766777      0.78528905130454
  H   -5.34236947580992      2.78446429341077     -1.02149008266516
  H   -6.59708087117185      0.75996570071724     -0.39076964896519
  H   -2.86145927704867      2.79370637541233     -0.91580216637429
  H   -6.61373905613564     -1.56269809144574      0.41294174205493
  H   -5.39217016029850     -3.57032476394042      1.14941503337190
  H   -2.90194327544904     -3.60613698930581      1.08868576405948
  C   -1.21468872955311      0.81405144880756     -0.24240924732557
  C   -1.23721212995168     -1.67068191201854      0.20959690880302
  N   -0.73706074280178     -0.31869274548140      0.57143211963699
  N   -0.87104628144237     -1.89460521890512     -1.18256391144542
  O   -0.68016920885215     -2.58127992036356      1.09736909762746
  O   -0.81832029603489      2.00316903293197      0.35515284743826
  O   0.38698466484489     -0.21137062662801      1.14170320409374
  H   0.07233701131171      1.85995540165650      0.70603711734183
  C   0.57227723787268     -1.92775265994447     -1.38999130087969
  C   -1.49491973247294     -3.07474477387398     -1.77078863112796
  H   0.13106826397689     -2.17828425550212      1.44570474958685
  H   -2.57715068373871     -2.97279247456727     -1.78313173827455
  H   -1.22679786345830     -3.99634635878369     -1.23712054376433
  H   -1.14935256570690     -3.16130290378661     -2.80007189876387
  H   1.04347100397605     -1.03036353682330     -0.99144993509051
  H   0.76368278440849     -1.96612256031883     -2.46154416594785
  H   1.04094549601355     -2.80278863947532     -0.92197592121045
  H   -0.75518435865650      0.69759700910954     -1.23438552168693
