27
Coordinates from ORCA-job 686optt
  C   -3.36218351289904      1.87471757097807      0.12946101920376
  C   -4.77330286888586      1.89167328895487      0.12369155718058
  C   -5.47865456634822      0.72677811607128      0.05603399226809
  C   -2.66377038962439      0.69825114366276      0.06364513674919
  C   -4.80199027465546     -0.51424365088818     -0.00799895864438
  C   -3.38267047233986     -0.53016382092465     -0.00488549872926
  C   -5.50838403156559     -1.73831521820740     -0.07560005909298
  C   -2.71192452256074     -1.77975420956153     -0.06012917980155
  C   -4.83759107962319     -2.92633857686455     -0.13040535224657
  C   -3.42857571113211     -2.94409878318592     -0.11733399332589
  H   -5.29014400107482      2.84090863188617      0.17740121266132
  H   -6.56180325866050      0.73195650103231      0.05294187591836
  H   -2.83613057856217      2.81717362076740      0.18917450159835
  H   -6.59128535103618     -1.71355059802508     -0.07882882931695
  H   -5.38248078698377     -3.86006389560770     -0.17652348480617
  H   -2.90530491479038     -3.89267869191890     -0.14742936190481
  C   -1.14639756113954      0.68583957277076      0.02786149871349
  C   -1.21161308522441     -1.80522603563127     -0.06339824489831
  N   -0.65159351450884     -0.60496395750388      0.54149680669179
  H   -0.82891066626687     -1.88320737738357     -1.09076880279802
  H   -0.82407476649514     -2.64935441379145      0.50337018097109
  O   0.53247588855266     -0.68352890946214      0.97834101978974
  C   -0.49201147135735      1.82715227270584      0.78506695164374
  H   -0.83036918012481      0.73430895378574     -1.02628061496222
  H   -0.84495382563715      1.85043420257537      1.81619338432986
  H   -0.72498100136052      2.77660747069533      0.30784139915361
  H   0.58601550430434      1.69507679307033      0.78685184365410
