30
Coordinates from ORCA-job 687optt
  C   -3.37556597677487      1.87423456564857      0.10538762470348
  C   -4.78511310725629      1.89183664155722      0.08013217200339
  C   -5.48935729192149      0.72439538261315      0.04765968924525
  C   -2.67182527485171      0.69774535236995      0.09391167086174
  C   -4.81039135044512     -0.51566428082143      0.02327732426849
  C   -3.38949289797069     -0.53102796628242      0.03548724012184
  C   -5.51715261854307     -1.74090626604967     -0.02005121526381
  C   -2.72163623988956     -1.78240380481345     -0.01202424340199
  C   -4.84768280534998     -2.93012319364122     -0.05288445118399
  C   -3.43870943666848     -2.94721034847260     -0.04877190497427
  H   -5.30230872211747      2.84230637155878      0.09415494288466
  H   -6.57242894223448      0.72784907448535      0.03724572492271
  H   -2.85086484304440      2.81946684466767      0.13728924421948
  H   -6.60002086210512     -1.71510468534976     -0.02539020815256
  H   -5.39309894233222     -3.86424018358932     -0.08083919339758
  H   -2.91472477444878     -3.89553046340688     -0.07475281871342
  C   -1.14895585663826      0.71747159077040      0.09201165805369
  C   -1.22449431549196     -1.81089645628880     -0.05197931054944
  N   -0.63765091834878     -0.60829726330587      0.52215202081911
  H   -0.86775155575357     -1.91663438226865     -1.08531831394570
  H   -0.82465512046486     -2.64678993095531      0.51901581178282
  O   0.57762623772423     -0.69365311130113      0.86534274404800
  C   -0.58673422669297      1.75251332686289      1.06218729177286
  C   -0.63113630278447      0.98615160744277     -1.32977173243958
  H   -0.97618061019845      1.58559352896661      2.06614409287643
  H   -0.85356540556242      2.75686494327896      0.74071525800174
  H   0.49682759338416      1.67262562051591      1.08784106003575
  H   -1.03468464060606      0.26261916989761     -2.03953986070741
  H   0.45796281897357      0.92914061886616     -1.33565800606646
  H   -0.94187361158633      1.98008769704454     -1.65179431182523
