30
Coordinates from ORCA-job 690optt
  C   -3.62324275930005      1.91136880832096     -0.38826562050551
  C   -5.01763601017326      1.86463139121199     -0.58950071857050
  C   -5.68246026232372      0.67376208909081     -0.54925461976816
  C   -2.89484038488081      0.77308766574630     -0.15707451559331
  C   -4.97380344901831     -0.52945433854998     -0.32940445068572
  C   -3.56624224711047     -0.48216859210595     -0.14824605409716
  C   -5.63460055043718     -1.78126708684301     -0.29580892462676
  C   -2.85925924616084     -1.70030001832100      0.03057673153266
  C   -4.93166418948648     -2.93432083520708     -0.09891733942559
  C   -3.53128564223240     -2.89078722163672      0.06219052667318
  H   -5.55781488181590      2.78587666652627     -0.76443456412296
  H   -6.75577374477856      0.63120961453049     -0.68853404494912
  H   -3.13218890017575      2.87495108899096     -0.40613536658094
  H   -6.70923178788093     -1.80472219592757     -0.42971318584997
  H   -5.44296409818672     -3.88748105944703     -0.06812254880910
  H   -2.98002203212821     -3.81219671314423      0.20848667614938
  C   -1.39463068024549      0.85312080346226      0.07253784891909
  C   -1.36478551607533     -1.65763489982952      0.13632809943698
  N   -0.90022298247344     -0.39251487321363      0.68506467524924
  H   -0.90836583575213     -1.79390127667695     -0.85422288253298
  H   -0.98269514687427     -2.43834220187520      0.79084041380855
  O   0.24449188604396     -0.38880208126069      1.22304163263772
  C   -0.95415910887716      2.04070104449172      0.92924747162079
  H   -0.90005836536566      0.93325220743386     -0.90746823168179
  C   -1.55221497901635      2.03120389384064      2.33021131192294
  H   -1.24027765094112      1.13741510694658      2.86987489687460
  H   -2.64235183937246      2.05213517906925      2.30016160309551
  H   -1.21334119534011      2.90024970617844      2.89372666374592
  H   -1.21648388971427      2.95805178559493      0.40176111988445
  H   0.13232549009357      2.01328634260314      0.98988339624856
