42
Coordinates from ORCA-job 692optt
  C   -4.01793777927325      1.86812831539572     -0.07597443652275
  C   -5.41876633971874      1.74777624517254     -0.20173638495391
  C   -5.99677775521171      0.51959990373720     -0.32244199552877
  C   -3.20504265684737      0.76569145287023     -0.03523991431601
  C   -5.20067240237773     -0.64985498304740     -0.28211993911314
  C   -3.79746550328171     -0.52874336014104     -0.09140337530730
  C   -5.77272258337947     -1.93231049940372     -0.44038073536124
  C   -3.01442734299370     -1.70626288693418      0.01619334007351
  C   -4.98518729752294     -3.04799325906080     -0.41543348903290
  C   -3.60372522161723     -2.93055714512493     -0.17366739923462
  H   -6.02624842042401      2.64304736409982     -0.22522009540180
  H   -7.06713920899113      0.41819919967705     -0.45397865578510
  H   -3.59161184170765      2.86063301455315     -0.03207217637312
  H   -6.84248239552481     -2.01101201342317     -0.59087108093741
  H   -5.42025227243217     -4.02862750740500     -0.55700150548843
  H   -3.00231437099451     -3.82942009489811     -0.11222559324262
  C   -1.69296042547552      0.88430685785380     -0.09138559455870
  C   -1.56299046361770     -1.64704142256315      0.42397093841753
  N   -1.08356328566486     -0.27018342792336      0.61472679484906
  H   -0.94233918104585     -2.08714721085773     -0.36658557752956
  C   -1.30588033997720     -2.42260006808525      1.72637279180511
  O   0.13154295573363     -0.16559014795943      0.95301168967872
  C   -1.15580726324425      2.16082084668240      0.56374142084879
  C   -1.21706182666510      0.77820260608447     -1.56451669312696
  C   -1.43661082429354      2.26129171935739      2.05796776780215
  H   -0.90748044155721      1.47660315942736      2.59707565638642
  H   -2.50215852114642      2.16965646428872      2.27378635333948
  H   -1.09633819812830      3.22243792477295      2.44364835164355
  H   -1.57819417454895      3.01758300142358      0.04029133474184
  H   -0.08058759844426      2.18968720038956      0.38931136654070
  C   -1.63528782090800      1.92691510185184     -2.47187225193939
  H   -2.71905976434353      2.04650971060710     -2.49276433072974
  H   -1.30286239368956      1.73333508566622     -3.49189873517066
  H   -1.19118252043699      2.87131484085514     -2.15705151268657
  H   -1.59650238351109     -0.16290975687445     -1.97290455635233
  H   -0.12735739936952      0.70187593672545     -1.53040584626476
  C   -2.11156277192716     -1.88579528845429      2.90163313729150
  H   -1.87024923380738     -0.83821203555798      3.08706495294015
  H   -1.88787593696258     -2.44807785377501      3.80784491321474
  H   -3.18439641728831     -1.95837166683686      2.71462491706211
  H   -0.23913047399150     -2.35987809979076      1.93658465639449
  H   -1.54233990339055     -3.47251722337508      1.54890149192790
