32
Coordinates from ORCA-job 698optt
  C   -3.99615715633903      1.79581230075467     -0.18060091872787
  C   -5.38076928857077      1.51972349654869     -0.17616170517174
  C   -5.82362356868225      0.23031027005641     -0.10728263898339
  C   -3.08106402086937      0.78299876521571     -0.12068644985093
  C   -4.90624365260954     -0.84882757210298     -0.07649945517354
  C   -3.51607999754371     -0.57035406987345     -0.10608827083664
  C   -5.33801419334820     -2.19524321646455     -0.03229291919946
  C   -2.59082578964374     -1.64685684023889     -0.15794005612460
  C   -4.42851004268262     -3.21436625632753     -0.04470189708409
  C   -3.04863196647223     -2.93618831052688     -0.12428716757789
  H   -6.08736008455085      2.33808564585439     -0.21826667302432
  H   -6.88440511601082      0.01137545383802     -0.08816117619878
  H   -3.65473765503674      2.82405172975152     -0.21077905127942
  H   -6.40071653189590     -2.40215401564594      0.00059631024027
  H   -4.76252744301208     -4.24324640754150     -0.01631726635717
  H   -2.34171073377467     -3.75606497215722     -0.17731953855361
  C   -1.60023208110960      1.06271141056367     -0.03921212617759
  C   -1.11930990454111     -1.35738088411780     -0.29743325384178
  N   -0.90163278246238      0.00419527949422     -0.76565630781984
  H   -0.65596651198783     -2.01409074596647     -1.03121038891014
  H   -0.60838525303458     -1.48624598520038      0.66421729296264
  O   0.13615070271804      0.27590463779981     -1.43670942969651
  N   -1.11893730005599      1.07491928052717      1.34254182150946
  H   -1.35177044467143      1.99463338346663     -0.56696041136527
  C   -1.86589642257267      1.98218093009347      2.19943866362621
  C   0.30289568493039      1.39125195346194      1.39515608711915
  H   0.87958145763385      0.68072267259559      0.80654837179887
  H   0.63600121073110      1.33810984341955      2.43099367638164
  H   0.51393540140497      2.40056674820595      1.00910477221698
  H   -2.90572215313699      1.67492746367708      2.27778285407991
  H   -1.83142075433070      3.02321269558682      1.83822701124128
  H   -1.42497360847232      1.95682531525225      3.19518024077813
