29
Coordinates from ORCA-job 6optt
  C   -3.23203563903350      1.36791425352268     -0.70876434533362
  C   -3.09328162115419      0.00238421951631     -0.93344722385438
  C   -2.17482302127121      1.88747699047542      0.22510091444213
  C   -1.92292395225073     -0.57656129566325     -0.18428187509052
  N   -1.41780872238985      0.64067512654538      0.48551550444935
  O   -0.40968924458496      0.62408246953234      1.23710699840770
  C   -2.35060968066441     -1.60909378769023      0.85379374256879
  H   -2.76191949534538     -2.48205419686455      0.34746840229060
  H   -3.11141662672985     -1.19654659694852      1.51730292740422
  H   -1.48551483379791     -1.90361193513227      1.44759191130127
  C   -0.85859324539568     -1.14349034133417     -1.11789573309999
  H   -1.26129179345522     -2.01092636513550     -1.64032488254462
  H   0.01337493427585     -1.43893861521651     -0.53474085319409
  H   -0.55546704158604     -0.39850529285896     -1.85430370785883
  C   -2.74752430276588      2.41956384032922      1.53713737686511
  H   -3.41053371102088      1.68426239735853      1.99333587333753
  H   -3.31033469148776      3.33651941756900      1.35648968955494
  H   -1.92975334849616      2.63393099238534      2.22502982379469
  C   -1.25519471399453      2.91819482788844     -0.42519697755208
  H   -1.80556941232990      3.83935004426109     -0.62202401359032
  H   -0.85641737527642      2.53842118460540     -1.36594225273245
  H   -0.42667604859065      3.13610272862901      0.24848092026382
  N   -3.88494898588014     -0.71825646432105     -1.70979081202771
  C   -4.26473926833130      2.03908928004545     -1.33466712439251
  C   -4.87916261992830     -0.06298339105708     -2.30942317949291
  C   -5.10713267325069      1.29951720842500     -2.15562214188302
  H   -4.41560465754462      3.10322914304201     -1.19312279890080
  H   -5.52677096862518     -0.65539507334084     -2.94574354132688
  H   -5.93304723909444      1.76772923143230     -2.67314262180541
