38
Coordinates from ORCA-job 700optt
  C   -3.43516569950846      1.86928222956948     -0.51941667123430
  C   -4.84406292243302      1.88486936187965     -0.51264684592463
  C   -5.54554483068324      0.75779466445542     -0.19070564907082
  C   -2.73124523120891      0.72511684216748     -0.23124236605023
  C   -4.86464833906906     -0.45376822095973      0.06380885977671
  C   -3.44844555788810     -0.47961186038843     -0.00837726906949
  C   -5.55878613422291     -1.65040279918028      0.37035201659610
  C   -2.76715811943721     -1.72214895944130      0.10265181512335
  C   -4.87608959947669     -2.81491502729780      0.56047015721237
  C   -3.47235187586769     -2.85549788885883      0.40080946679989
  H   -5.36490825217982      2.80648527471047     -0.73735368391704
  H   -6.62757103687042      0.77152311260931     -0.14254776553106
  H   -2.90911126991078      2.79086907643003     -0.72735592355512
  H   -6.63917448949530     -1.62214051660048      0.44375689135612
  H   -5.40781628522823     -3.72566265389924      0.80314806777981
  H   -2.96497021018674     -3.80558983963658      0.49350319199338
  C   -1.22604533224404      0.82588772241328      0.02458034663328
  C   -1.30225369436264     -1.73519832800321     -0.25674014962354
  N   -0.65067591149908     -0.52721823173534      0.28451469033490
  H   -1.24122222761851     -1.66463907091327     -1.35445555398758
  C   -0.54683805494073     -2.97344498791515      0.18508499592795
  O   0.59053280943891     -0.57101689831724      0.50726250768372
  N   -0.94040056847191      1.58672767177097      1.23817222946346
  C   -0.48154959570033      1.39174682221697     -1.18385979856028
  C   -1.63808999044152      1.10622288134086      2.41576492565221
  C   -0.97389934839252      3.03095806130115      1.17261599110638
  H   -0.43844775800658      3.40065902959916      0.30135251982349
  H   -0.46815681675284      3.42063082340816      2.05780184515271
  H   -1.99407510649296      3.44473673924284      1.17100919610664
  H   -1.54594228635302      0.02357769384349      2.49244792416001
  H   -2.70720126946597      1.36977906780739      2.41439954646210
  H   -1.17777812689273      1.55073923771344      3.29854385108419
  H   -0.54221759085674      0.67330892819866     -2.00169495136649
  H   0.56330960187746      1.54037833181559     -0.91687792120752
  H   -0.91562737466292      2.32611878951468     -1.53160312799256
  H   -0.61745641414868     -3.10056946349895      1.26588509277633
  H   0.50120254216958     -2.88530282221068     -0.08333445493558
  H   -0.96232763251542     -3.85148479315194     -0.30659399697888
