41
Coordinates from ORCA-job 701optt
  C   -3.39800838105021      1.77867546127783     -0.68816019489455
  C   -4.80710010046920      1.78278963574056     -0.71128259334408
  C   -5.50463253620356      0.67949811269356     -0.31327251721585
  C   -2.68936182746048      0.66778554855257     -0.29848615440402
  C   -4.81908518149599     -0.49912141853312      0.05865952536309
  C   -3.39994770738685     -0.52111253122169      0.01806363517890
  C   -5.51824848303897     -1.66320208810004      0.45812479237226
  C   -2.71477169439890     -1.74111624174914      0.27016132670029
  C   -4.83610426761833     -2.79930492861890      0.77733102396640
  C   -3.43012680471019     -2.84247389610561      0.66057289127077
  H   -5.32941202080497      2.67880909452494     -1.02014799031999
  H   -6.58750967207930      0.68488485577390     -0.28785253561086
  H   -2.87915528149324      2.68837938431141     -0.95541520159812
  H   -6.60016066022303     -1.63277914350928      0.50126098290102
  H   -5.36869686477393     -3.68707963983901      1.09240927691950
  H   -2.92612167904428     -3.77737997394609      0.86037750008980
  C   -1.19604644602901      0.79770634005556     -0.01036947665613
  C   -1.24163969048456     -1.82975996390710     -0.07217631550745
  N   -0.57389252133767     -0.53491992675569      0.21295443937640
  C   -1.09676117835204     -2.11222076531465     -1.57869510080790
  C   -0.51306800092423     -2.90613280202808      0.72597609702367
  O   0.68681722281196     -0.54409918623558      0.29089076504490
  N   -0.96561659943218      1.52697454239937      1.24600577835547
  C   -0.43800911979941      1.45115089990008     -1.16689653938041
  C   -1.63563218007734      0.94453646641885      2.39483706471402
  C   -1.15766480760659      2.96173189981692      1.22410214502818
  H   -0.62830752710841      3.41799501312030      0.39077409485709
  H   -0.73744347079928      3.37147972677719      2.14376678037114
  H   -2.21706038348915      3.25872293169489      1.18438523894005
  H   -1.44691705978432     -0.12772706525519      2.43914037765678
  H   -2.72428722560542      1.10908242228532      2.38458996923795
  H   -1.23037502110543      1.39852835245808      3.29937647682782
  H   -0.43738128303360      0.76930148090500     -2.01649356579175
  H   0.58891583275731      1.62958755546363     -0.85678235968068
  H   -0.89437051699028      2.38404530871485     -1.48500579600626
  H   -0.65065695882322     -2.75387174419575      1.79710606474675
  H   0.54847740218865     -2.86764674786946      0.50073310793110
  H   -0.88900581063608     -3.89074104541527      0.45466975359990
  H   -1.63694217549750     -1.36850821873032     -2.16625337669369
  H   -1.50458909110101     -3.09583424374060     -1.81282107246923
  H   -0.03967022748962     -2.08583346181424     -1.84660831809232
