43
Coordinates from ORCA-job 703optt
  C   -3.52820755085796      1.81233637939846     -0.62430923405956
  C   -4.93467696715595      1.83261872886101     -0.55090358894768
  C   -5.62038551144189      0.73274396007112     -0.11666576347403
  C   -2.81667392092866      0.68426619149575     -0.29706609743595
  C   -4.93032966530742     -0.46352231756426      0.18065576533788
  C   -3.51994543712186     -0.50311233313595      0.03061580264770
  C   -5.60876250356462     -1.63344655868715      0.60345212620624
  C   -2.83882601807133     -1.74324502098149      0.16627169029969
  C   -4.91921307233632     -2.78782875092519      0.82777841336816
  C   -3.52899801083775     -2.84972908041741      0.58010345206788
  H   -5.46579393589854      2.73886040056249     -0.81142414237229
  H   -6.69827392053915      0.75548097463805     -0.01148001390367
  H   -2.99174512866983      2.70257033365719     -0.92332798241665
  H   -6.68280786076125     -1.59294146764876      0.73848021661573
  H   -5.43738105391819     -3.67760008039626      1.16056497261734
  H   -3.02309493861464     -3.79825761524345      0.69422849573856
  C   -1.30502978449454      0.79845676545136     -0.07804844186949
  C   -1.40956279745228     -1.80318306890050     -0.31544497593617
  N   -0.69795391225715     -0.56215589469074      0.04656764255969
  H   -1.44783425873440     -1.83817407562322     -1.41501724738432
  C   -0.62342441776178     -3.00549576205330      0.17400653598495
  O   0.55865100489011     -0.60281443817854      0.17181382181236
  N   -1.02419931370766      1.46028979521364      1.19754809528931
  N   -0.70141953838680      1.54871885273874     -1.15773402781302
  C   -1.48216289427785      0.73694527285305      2.37021747962845
  C   -1.39224641475876      2.86143191041981      1.28988726152279
  H   -1.10438665931714      3.39549568013469      0.38761077954966
  H   -0.85804911550025      3.29551275787596      2.13675846170460
  H   -2.46886920126612      3.00883216696800      1.45743751618756
  H   -1.10873535877123     -0.28511775323143      2.36377585627151
  H   -2.57927460297101      0.71536309025185      2.45600467694498
  H   -1.08396718282806      1.23723434014176      3.25302367321137
  C   -0.87176942197315      0.92677942275615     -2.45871311335637
  C   0.68267650964283      1.98288709694240     -0.98670786234687
  H   -1.91482882207567      0.66741806350170     -2.63415681720832
  H   -0.25390725295406      0.02208226271041     -2.56479653988102
  H   -0.56112236271270      1.63403909169966     -3.22822415457506
  H   0.87128082521369      2.25793464167908      0.04572252259400
  H   0.84651043068892      2.84909508504647     -1.63229471620293
  H   1.39480604600244      1.19766244811377     -1.25831253132532
  H   -0.60700637263655     -3.03489508911164      1.26438753907205
  H   0.39931167433282     -2.95220272258821     -0.18557399823621
  H   -1.07907130990815     -3.92010368380508     -0.20117154848759
