43
Coordinates from ORCA-job 706optt
  C   -3.97498839383005      1.97183163093291     -0.04438796212134
  C   -5.36833482132320      1.78380987953149     -0.13717981661213
  C   -5.88733273724232      0.52379794158134     -0.20469235036376
  C   -3.11527014691900      0.90645270501366     -0.02053662432411
  C   -5.03506049185933     -0.60464344939997     -0.18123766471191
  C   -3.62715013693977     -0.41738919315828     -0.08872158669352
  C   -5.55933389249381     -1.91621645234185     -0.24595952533921
  C   -2.78593217182028     -1.56192632384291     -0.05830239733366
  C   -4.72698413374108     -2.99773989766005     -0.21970363592985
  C   -3.33382965056160     -2.81571503489861     -0.12323855088433
  H   -6.02189064123536      2.64625008221686     -0.15157566731727
  H   -6.95673470569156      0.36571047382096     -0.27459086708623
  H   -3.56390411065208      2.97031351201249      0.02351242692296
  H   -6.63300048439942     -2.04320451975382     -0.31453120872234
  H   -5.13107047037421     -4.00053694109855     -0.26692277476352
  H   -2.67377639817375     -3.67175716846750     -0.08264564622911
  C   -1.61325537771248      1.16684551117052     -0.00093611663002
  C   -1.27731440129603     -1.42245306953295      0.01513457055595
  N   -0.91276375246540     -0.06218376173562      0.50376579369041
  H   -0.86394428656659     -1.50024728179101     -0.99951949185512
  N   -0.67898547402413     -2.46307603452789      0.79063397366312
  O   0.29568456291404      0.09366361927960      0.84094574250303
  N   -1.32409491637717      2.29797619565790      0.84373537466843
  C   -1.13808192099274      1.38802870566326     -1.44142662970783
  C   -1.56957934780355      2.05319226247899      2.25641792252110
  C   -0.09150292707409      3.04327242488622      0.63926616067745
  H   0.01303245930707      3.34349895940785     -0.40081634071293
  H   0.80198677991291      2.49032305002269      0.94449010168793
  H   -0.15853974154637      3.95618082491320      1.23351506877390
  H   -0.76794295187385      1.46482099403037      2.71916840867869
  H   -2.51211646866866      1.52176810309109      2.38620558691082
  H   -1.64354140955561      3.01058647136896      2.77392001083508
  C   -0.94516040732472     -2.38647918423791      2.21622741148235
  C   0.70413166707815     -2.79571706770064      0.49563655537124
  H   -2.00453775820329     -2.19190018716326      2.38604366841566
  H   -0.35746247884857     -1.59977167558658      2.70514829660406
  H   -0.69554164244505     -3.34429047936321      2.67478047186735
  H   0.85684823437346     -2.80145822196560     -0.58387582612487
  H   0.90668356471178     -3.80108862294443      0.87111871149715
  H   1.41649272446591     -2.09729568274321      0.94419840009897
  H   -1.51768436480504      0.58634642962809     -2.07518605736424
  H   -0.04956029926733      1.39266603280832     -1.48746892748526
  H   -1.53165667865570      2.33233444039705     -1.81682898911309
