46
Coordinates from ORCA-job 710optt
  C   -3.36013430647981      1.74789193040166     -0.82716111122792
  C   -4.76701069500198      1.73462510335605     -0.91547357174518
  C   -5.46901820942140      0.64653158389406     -0.49029026642245
  C   -2.65735629539092      0.67003830714665     -0.34737206340143
  C   -4.78945263169026     -0.49453402953238     -0.00428350252317
  C   -3.36838298882392     -0.50414918348795      0.02936802382429
  C   -5.50649888518681     -1.62610154605418      0.44878745572674
  C   -2.69190887891069     -1.68759112358654      0.43883196176647
  C   -4.84013464404908     -2.72364986257776      0.90590836325067
  C   -3.43100299450988     -2.75607803940847      0.88391463051195
  H   -5.28223450066291      2.60427010042329     -1.30171918059677
  H   -6.55171656676921      0.63467492427916     -0.52042629235836
  H   -2.84130827689369      2.64641258138447     -1.12774535029859
  H   -6.58915791349727     -1.59954686112333      0.42788400088500
  H   -5.38488230875635     -3.58622007672780      1.26668477789044
  H   -2.93898627040578     -3.66166841921290      1.20740422542532
  C   -1.17268552735164      0.81163266841801     -0.03492840948859
  C   -1.19591377531190     -1.84888736702083      0.19813993374754
  N   -0.53291229297694     -0.52313097590796      0.09545757845099
  N   -0.94116513660508     -2.54429755676256     -1.07980126525504
  C   -0.48811383171214     -2.58708928629304      1.33695259484696
  O   0.72863538750898     -0.53214366684475      0.12308614677660
  N   -0.96996176255220      1.50113306314174      1.25545440862731
  C   -0.40214554070330      1.54264277458773     -1.13681105710282
  C   -1.70437196619800      0.92290246447885      2.36649995530076
  C   -1.14583135817086      2.94095145252413      1.24883266273133
  H   -0.50845970996861      3.41469165846037      0.50686314357621
  H   -0.84579170028593      3.31851466685722      2.22684708366732
  H   -2.18958848928341      3.24986071764857      1.08143358242568
  H   -1.57298822198993     -0.15651718863312      2.39334729481604
  H   -2.78361381042141      1.13651044696821      2.32672711428057
  H   -1.30823343688488      1.33437710248855      3.29511044544466
  C   -1.60845275074219     -1.95494007720228     -2.22664313137662
  C   -1.14292820737149     -3.98066104104828     -1.08072295845538
  H   -0.55699260610568     -4.46367815392373     -0.30315039385320
  H   -0.79538898660418     -4.36622376212047     -2.03973265668411
  H   -2.19982643651608     -4.27027922117224     -0.97155832727629
  H   -1.45532398488842     -0.87827976802447     -2.24822943412644
  H   -2.69220738375085     -2.14805041081353     -2.24029479725461
  H   -1.17456726665015     -2.37608886340510     -3.13380743646058
  H   -0.47956217131995     -1.95856565746594      2.22493490163508
  H   0.53980293830520     -2.77951995069993      1.04104837727063
  H   -0.97511089314317     -3.52394736817332      1.58732944295517
  H   -0.36419093913937      0.91822111578301     -2.02689969592386
  H   0.61438239015429      1.71669379607064     -0.79398414775606
  H   -0.86189616287066      2.48871299891056     -1.40337305624625
