31
Coordinates from ORCA-job 717optt
  C   -3.31218390252909      1.94273277873275     -0.41337714697129
  C   -4.72009966343425      1.95078285732567     -0.47866870824546
  C   -5.42119862210592      0.79354898943594     -0.29113055805727
  C   -2.62709563772632      0.77870759083203     -0.19501591214345
  C   -4.74861676808332     -0.42899111598323     -0.05501292265171
  C   -3.32766073685668     -0.44307140579585     -0.03994913676292
  C   -5.45280393682707     -1.63187201314925      0.18161539914598
  C   -2.64434638616839     -1.67014741542187      0.15674857537415
  C   -4.77444835724976     -2.79167470783280      0.42673630598298
  C   -3.36598328432151     -2.80885181773554      0.40493966771075
  H   -5.24099743779273      2.88166903480452     -0.65955787569521
  H   -6.50425952171736      0.79401203363053     -0.31389113757691
  H   -2.76222904556304      2.87113526772561     -0.51126480486818
  H   -6.53573141052984     -1.61367081130129      0.17371002317183
  H   -5.31390865437852     -3.70874574648019      0.62364262066434
  H   -2.84673012160602     -3.74532732282663      0.57167058240176
  C   -1.13430928585704      0.84973502882418      0.00436592273609
  C   -1.14507637792010     -1.76349785860196      0.01659050596152
  N   -0.49709709336779     -0.45466518218619     -0.14000669044232
  C   -0.75679141934843     -2.63604320915741     -1.17930025693411
  H   -0.72099846495253     -2.20584369217722      0.92522017066494
  O   0.76501274823245     -0.45471583499975     -0.22059840766634
  O   -0.79491754590293      1.45539009947638      1.22704058566198
  H   -0.67160916514712      1.48812384449860     -0.74812808522372
  C   -1.20886505291647      0.74993525379175      2.37785361660821
  H   -0.88619343672591      1.33720302589630      3.23382087073880
  H   -0.73487289201591     -0.23545186508982      2.42818745190019
  H   -2.29617129154653      0.63195064469645      2.41135059167688
  H   -1.20484564527279     -2.23501394258227     -2.08921088001474
  H   -1.11463231511074     -3.65394234675482     -1.03406482485407
  H   0.32583072474178     -2.64616016159466     -1.28413554229272
