34
Coordinates from ORCA-job 719optt
  C   -3.36254921865079      1.85451306042203     -0.04875933717868
  C   -4.76954120164766      1.89574008159877     -0.10047424528807
  C   -5.49267403823169      0.73717718524208     -0.08000533899780
  C   -2.69194604442116      0.66149078903215      0.00977333029399
  C   -4.84017174962507     -0.51520958678868     -0.01152211392426
  C   -3.41922920223440     -0.55619355151064      0.02397057129496
  C   -5.56807406226003     -1.72781831429858      0.03181833116070
  C   -2.76851336288892     -1.81483482403414      0.09438692203362
  C   -4.91754532790339     -2.92540719807841      0.11406687605735
  C   -3.50897033688453     -2.96504097704174      0.14555005551705
  H   -5.27266529891652      2.85262818932633     -0.14693539956514
  H   -6.57527853825397      0.75925606411200     -0.10975195875767
  H   -2.79603201984870      2.77737231329331     -0.03089709224218
  H   -6.65007990699015     -1.68619535375681      0.00462466630375
  H   -5.47806634625462     -3.84996938149094      0.15664659172794
  H   -3.00332686230296     -3.92187786492288      0.21030844985989
  C   -1.17219398633180      0.70222858488916      0.07971544735268
  C   -1.26824216149936     -1.89221164405727      0.05766781913962
  N   -0.64138373187637     -0.63051340805284      0.46305301438262
  C   -0.75568433167134     -2.33814305972494     -1.31639234874130
  H   -0.92190045225570     -2.61029164635914      0.80322409186011
  O   0.58640617958435     -0.68972155116931      0.75546720673018
  O   -0.73461342496226      1.64406512101467      1.01449336444364
  C   -0.55496602027542      1.13434799060184     -1.24608416663052
  C   -1.05018936613888      1.36646606821783      2.36593989255511
  H   -0.77580551296666      2.25409910584999      2.93079045713326
  H   -0.47642717534823      0.51243025790427      2.72932849980138
  H   -2.11954397155844      1.17481966616066      2.49474680379485
  H   -0.91033196714639      0.50829928621944     -2.06246305925375
  H   0.52833791896037      1.06234295821127     -1.16248848437488
  H   -0.83817108128246      2.16674064591462     -1.44568238038964
  H   -1.17181707089518     -1.71591883008647     -2.10843193637532
  H   -1.06038493282072     -3.36764865499264     -1.50324556825535
  H   0.33203460579933     -2.27821152164496     -1.33648896146820
