37
Coordinates from ORCA-job 720optt
  C   -3.43370046971607      1.96182023886712      0.07716379049358
  C   -4.84179025702412      1.98577566895314      0.04377141970972
  C   -5.54393683202395      0.81728746559565     -0.02603286929189
  C   -2.74853125307264      0.77689300143319      0.05852960864256
  C   -4.87185077829967     -0.42740351353831     -0.04382301279865
  C   -3.44999172582857     -0.45381689779490      0.02034124470203
  C   -5.58588949634088     -1.64371762637265     -0.12695115680059
  C   -2.77737099075798     -1.70426523610654      0.04382109906935
  C   -4.91783630696095     -2.83360439086325     -0.14440658140956
  C   -3.51331833343878     -2.85859663547512     -0.05152510137045
  H   -5.36012462498939      2.93544335259891      0.06344809506511
  H   -6.62631482773848      0.82255927252084     -0.06892853256415
  H   -2.87523396021601      2.88864265427409      0.11922165757761
  H   -6.66724515777556     -1.61196236542605     -0.17944073988800
  H   -5.46178157164963     -3.76625954181777     -0.21627624675386
  H   -3.01206483214407     -3.81816274123570     -0.04396895101552
  C   -1.23521423486900      0.82485344791321     -0.00630701311735
  C   -1.27166283392597     -1.80442126973550      0.19653735123125
  N   -0.65147417419743     -0.47348563705430      0.41523521745461
  C   -0.63786247912123     -2.42307538173888     -1.05738498489230
  C   -0.91777915508615     -2.64233996842161      1.43090977263128
  O   0.59768901214026     -0.47086245939909      0.60602575050690
  O   -0.71814666647542      1.83314217593245      0.80903281716594
  C   -0.76056573341174      1.15182967390911     -1.41875060564317
  C   -0.88470281920667      1.64546372901107      2.20184346107484
  H   -0.58873194030578      2.57958621229850      2.67333163006321
  H   -0.24511887782126      0.83766750308729      2.56157990671964
  H   -1.92744395695322      1.43030159497671      2.45357435954778
  H   -1.19806315159246      0.46013200994049     -2.13795054923194
  H   0.32594295323157      1.08381586474635     -1.44456175451231
  H   -1.07281206273082      2.16449777209030     -1.66980455652902
  H   -0.90626024740256     -1.85838011056016     -1.95008179391485
  H   -0.98749368057139     -3.44723581376337     -1.18406124684917
  H   0.44553949104898     -2.42548146044749     -0.94581636688365
  H   -1.37694053775589     -2.21133455094904      2.32122033796155
  H   0.16250006214308     -2.65795667330992      1.55811988629370
  H   -1.27726754916007     -3.66268936413873      1.31141465755573
