35
Coordinates from ORCA-job 722optt
  C   -3.43760050778597      1.97043020537401      0.18685507478395
  C   -4.84590729870067      1.96944825281609      0.17765854587237
  C   -5.53230244572061      0.79683415719939      0.02569012420633
  C   -2.73735431251251      0.79869116878221      0.07749056697156
  C   -4.84331083617770     -0.43200067716687     -0.09170459317689
  C   -3.42309299382631     -0.43440060919592     -0.03341317483707
  C   -5.52743003969115     -1.65741112976892     -0.27123756429742
  C   -2.72857901415687     -1.66815328874081     -0.10179430065790
  C   -4.83321713500202     -2.82782244532711     -0.38658758045095
  C   -3.42657166745760     -2.83083473803990     -0.29162054339910
  H   -5.38030311211081      2.90577788154177      0.26946317565853
  H   -6.61502381285288      0.79124269227516     -0.01059465554626
  H   -2.88957404236133      2.90149909911080      0.25765599459826
  H   -6.60938416241860     -1.64815613365715     -0.32081915719713
  H   -5.35863121884740     -3.76168380963568     -0.53678391881472
  H   -2.89068466310896     -3.77129454992267     -0.35267192570530
  C   -1.22457482161735      0.91058717714349     -0.05753079347093
  C   -1.24664448145890     -1.72042787247419      0.14577607444395
  N   -0.58331192957662     -0.42325004086190     -0.03278080043134
  H   -0.77427042027229     -2.37396023088648     -0.59205013839716
  C   -0.94219161047042     -2.26379459732054      1.54498437588223
  O   0.67675497800414     -0.44418334258921     -0.09707631449729
  O   -0.67404029749185      1.72968692756378      0.91408233591170
  O   -0.87805857673071      1.56680688553118     -1.23208132067682
  C   -0.70903973384288      1.22292232290047      2.23035334472642
  H   -0.37985130323611      2.03222869886033      2.87685163761859
  H   -0.02816605571358      0.37522807069013      2.33853644469195
  H   -1.72225325731828      0.92356829256041      2.51917324161698
  C   -1.25076111850365      0.91392070368557     -2.42687759173032
  H   -0.91514275351323      1.55454135622934     -3.23790357875947
  H   -2.33510168181323      0.78447104986772     -2.49452084641427
  H   -0.75950257299898     -0.05914645977610     -2.51399233307751
  H   -1.46008248016315     -1.67231016518258      2.30115348017079
  H   0.13188959271949     -2.22513752051301      1.72335161089237
  H   -1.28215421327091     -3.29586733107277      1.62373510349187
