38
Coordinates from ORCA-job 723optt
  C   -3.46789025206510      2.01425483683395     -0.07969421949166
  C   -4.87458202458893      2.02968877670987     -0.10213711587626
  C   -5.57050407699145      0.85463888547992     -0.06306015033225
  C   -2.78017906088038      0.83150421834755     -0.01865407606548
  C   -4.89402280129028     -0.38500106898642     -0.00023148129038
  C   -3.46985174243059     -0.40278299894622      0.02296390131762
  C   -5.60478932463755     -1.60588339773862      0.03925797348335
  C   -2.79000609243116     -1.64748522766744      0.08757491200235
  C   -4.93195373704868     -2.79121943407097      0.09890057848207
  C   -3.52393196539613     -2.80614458410984      0.12336317118764
  H   -5.39880204797623      2.97494005146770     -0.15069420892853
  H   -6.65371169142215      0.85249949694095     -0.08003011934959
  H   -2.90759059752335      2.94006554214178     -0.11081926634970
  H   -6.68742482412313     -1.58073771246940      0.02078331253085
  H   -5.47322161179212     -3.72765418459419      0.12901046357118
  H   -3.01820440604939     -3.76210829945367      0.17314366590039
  C   -1.26558072617204      0.93423162662908      0.00025574980369
  C   -1.27731150569512     -1.73779721251037      0.12150243968308
  N   -0.62966641221703     -0.39992216718981      0.07080859296927
  C   -0.76325347929925     -2.52766886870208     -1.08924339981251
  C   -0.81423689790681     -2.40832861345428      1.42152445203557
  O   0.63241998843586     -0.39072668645138      0.09260449384015
  O   -0.82547923637605      1.72460898885811      1.05352323048209
  O   -0.79271129718970      1.62598408941188     -1.10649553053055
  C   -1.01031977959851      1.17860654013443      2.34104650300696
  H   -0.78227250797903      1.97403404441798      3.04578423244556
  H   -0.32719248033223      0.34222953492873      2.50840490002978
  H   -2.04317158844351      0.84882806550329      2.49654981530637
  C   -0.93808116104131      0.96407886771737     -2.34382013264871
  H   -0.68562729191188      1.69159902231064     -3.11086887948691
  H   -1.96626133411033      0.62077349436294     -2.50110149363657
  H   -0.25192882259030      0.11629551783935     -2.41172934938459
  H   -1.22152934487123     -1.88554775097950      2.28725955233208
  H   0.27349661934056     -2.39102860528589      1.46693042185056
  H   -1.15639531561572     -3.44166570189794      1.45223832366702
  H   -1.13216211346042     -2.08875589639139     -2.01656952540709
  H   -1.10710901194912     -3.55953370218941     -1.03735233743138
  H   0.32542995562982     -2.51421948694668     -1.09102939990546
