36
Coordinates from ORCA-job 731optt
  C   -3.41703411310171      1.91190178889760     -0.19679430557827
  C   -4.82604763676014      1.95599700771568     -0.19355783917185
  C   -5.55016151184068      0.80043348962079     -0.12008981851150
  C   -2.75235987365252      0.71800945299654     -0.11730628285987
  C   -4.89918497553108     -0.45256530770244     -0.03273684781360
  C   -3.47775454253581     -0.49447488405865     -0.01971431576591
  C   -5.62331858285698     -1.66411330904348      0.04266711959281
  C   -2.82987125594471     -1.74651438442088      0.09239359586576
  C   -4.97041242428880     -2.86220013182152      0.12792359939442
  C   -3.56320159706574     -2.90097827151071      0.15712622470283
  H   -5.32855785207832      2.91212242078340     -0.25610739955815
  H   -6.63312086926483      0.82455375401377     -0.12644073248746
  H   -2.84457582803720      2.82869122565113     -0.25939870686916
  H   -6.70582136264615     -1.62419183753156      0.03014488590435
  H   -5.53053145877535     -3.78628647987981      0.18198034470063
  H   -3.04221769288557     -3.84626513085792      0.24226028109792
  C   -1.24157307591600      0.72604175020691     -0.18741668072822
  C   -1.31588280175125     -1.88703601196354      0.15661189035716
  N   -0.65493962227656     -0.55721773607921      0.25614499459588
  O   -0.82432211269777     -2.59034703858705     -0.93644218643155
  O   -0.92259740941490     -2.67299604878992      1.22306000126238
  O   0.59860291491099     -0.57737596579212      0.38766820395577
  O   -0.67854178649222      1.78383327888801      0.51441267594892
  C   -0.78490971295554      1.69808499272408      1.92430136418686
  H   -0.55871820747154      2.68828383026353      2.31223517007944
  H   -0.06262323095372      0.98023951058989      2.31629218002268
  H   -1.79519433773984      1.41242891373263      2.23307220798547
  C   -0.91152257706877     -1.92119677639972     -2.17585153822398
  H   -0.67725620606263     -2.65732750870262     -2.94015320109378
  H   -0.18212188662453     -1.10830458687375     -2.23049040432751
  H   -1.91844869207504     -1.52981377225803     -2.35654966582150
  C   -1.16980280231433     -2.13706862617169      2.50699192256194
  H   -0.97761195236692     -2.94123653066987      3.21243433930648
  H   -2.20772778703360     -1.80677032511584      2.61308927708484
  H   -0.49556421395994     -1.30449112255600      2.71459052854899
  H   -0.92092292247021      0.88404037070239     -1.22295088191325
