35
Coordinates from ORCA-job 737optt
  C   -3.52309615879893      1.92357927233428      0.21238609735524
  C   -4.93038834366267      1.91575950122425      0.14655006832126
  C   -5.60191253201840      0.73965112701694     -0.02444337779335
  C   -2.81197730338519      0.75912120662602      0.12297619638896
  C   -4.89894912029192     -0.48411871432536     -0.12284376668418
  C   -3.48004116322723     -0.48076060704016     -0.03198283587598
  C   -5.57680701727831     -1.70929041768588     -0.31486586543620
  C   -2.77160136926760     -1.71088104024758     -0.09629107221826
  C   -4.87578134816933     -2.87634034913813     -0.41004630800892
  C   -3.47187905653950     -2.87385374311112     -0.29338486916564
  H   -5.47271342817313      2.84844903411145      0.22775281894042
  H   -6.68312843467888      0.72320572198463     -0.08766961214942
  H   -2.99230920486082      2.85797232561656      0.34419974572134
  H   -6.65745817532188     -1.70236931117177     -0.38736965195913
  H   -5.39287760172998     -3.81420486170633     -0.56435794681498
  H   -2.94554179533519     -3.81652483312101     -0.35979386687715
  C   -1.30030902286929      0.82032267516940      0.10862668554406
  C   -1.26497863085274     -1.75450560226369      0.03819732357152
  N   -0.70804710691905     -0.47505450474685      0.51782018593451
  H   -0.82589745670201     -1.92676739160133     -0.95439650214915
  C   -0.78732553985628     -2.85542075599593      0.98035383202176
  O   0.53115122362863     -0.45518827377611      0.75617262790612
  O   -0.80109083693658      1.82658786374823      0.95001741911476
  C   -0.78514678423642      1.16803406123110     -1.28435744235367
  C   -1.00202992113608      1.77585597309515      2.29518364007489
  C   -1.68982307301956      0.90055224907024      3.01243827439114
  H   -1.72640423882563      1.04185318896010      4.08228940518183
  H   -2.20881148216486      0.05111745428925      2.59467947079698
  H   -0.49247886587993      2.61137718589470      2.75728075390652
  H   -1.14410937936816      0.43574638714656     -2.00813888587382
  H   0.30362497738501      1.16908524529582     -1.26214678316242
  H   -1.15347439537260      2.15236624737336     -1.56857809570409
  H   -1.25696822745924     -2.73624283330259      1.95732948447914
  H   0.29126271255646     -2.79397150293422      1.09346242151020
  H   -1.04307189923257     -3.83523197802000      0.58398043106568
