35
Coordinates from ORCA-job 739optt
  C   -3.50200064218092      1.98380889796022      0.01823683225293
  C   -4.90807500155109      1.98856657831703     -0.05084395969338
  C   -5.59470288245289      0.80899701452335     -0.09293956724387
  C   -2.80612956970714      0.80597506554417      0.03550635392675
  C   -4.90757234843961     -0.42699213190725     -0.08011614632350
  C   -3.48735482482436     -0.43420924355746     -0.02508234864149
  C   -5.60485131625542     -1.65670167224391     -0.11840025870197
  C   -2.79002165132917     -1.67420005697876     -0.01394955055085
  C   -4.91963154009445     -2.83531919461568     -0.10058074592253
  C   -3.51033029052646     -2.84000581451622     -0.05002036222658
  H   -5.43879772187537      2.93133627518213     -0.05872832227667
  H   -6.67708073669442      0.79992186498549     -0.13511919744820
  H   -2.96004718359266      2.91870359771986      0.08435863660510
  H   -6.68702773448595     -1.64245408562080     -0.16071448630756
  H   -5.45086699102966     -3.77762680418844     -0.12766990719385
  H   -3.00030424812513     -3.79334786477926     -0.04897530225508
  C   -1.30132432796834      0.85872568797664      0.13147281773920
  C   -1.27229374143647     -1.70435874922299     -0.06140295525694
  N   -0.71248723757237     -0.44075458504904      0.49029282865837
  C   -0.80842453899972     -1.81754994089837     -1.52290370852628
  C   -0.68734920015408     -2.84340224828185      0.76895789638701
  O   0.52796153373636     -0.41502589538735      0.72370420454226
  O   -0.84317195888318      1.84978844146875      1.00625732976457
  H   -0.87229041139113      1.15212017289190     -0.83312592299884
  C   -1.12645100985184      1.77021575074377      2.33574290524071
  C   -1.83093565002454      0.86081461953657      2.99175607789785
  H   -1.93944672691238      0.97949000460473      4.05948639180968
  H   -2.29597674089552      0.00422084068926      2.52721501518338
  H   -0.67022128111298      2.61042327566566      2.84264967513286
  H   -1.05229029167850     -2.79482803008405      1.79506561419612
  H   0.39622289476615     -2.76420365296731      0.77643087279964
  H   -0.96074723006796     -3.80437089976782      0.33864007979954
  H   -1.22552530425993     -1.01176231602779     -2.12956702484937
  H   -1.14529546251549     -2.76506630567895     -1.94322041962682
  H   0.28025136838672     -1.77048859603620     -1.56130334589218
