40
Coordinates from ORCA-job 746optt
  C   -3.49372212850746      1.95952207634128     -0.20652661457390
  C   -4.89451355711304      1.94800520394084     -0.35080874969581
  C   -5.57972041311151      0.76757920436970     -0.30412148801151
  C   -2.79352755307277      0.79522986700535     -0.03981083312947
  C   -4.89371429002782     -0.45509820113049     -0.12009093691638
  C   -3.47749723223442     -0.44538375921043     -0.00799421774598
  C   -5.58475921387748     -1.68586479791274     -0.01966938802867
  C   -2.79587008674666     -1.67363996737650      0.18522701005659
  C   -4.90534568689810     -2.84907375124314      0.20138581846476
  C   -3.49918876314488     -2.84184211747557      0.30212801962261
  H   -5.42383842795609      2.88260531738517     -0.48015508390727
  H   -6.65906178327556      0.75013257168098     -0.39348520780830
  H   -2.96379364673501      2.90397053444859     -0.19410885926195
  H   -6.66440106269071     -1.68366917581207     -0.10743277705392
  H   -5.44024062814642     -3.78471131195367      0.29591627504725
  H   -2.96195655159632     -3.76614790024998      0.47233557493836
  C   -1.29265124531362      0.88291898471450      0.15705920430500
  C   -1.28358246712112     -1.72417718362523      0.16959296106769
  N   -0.71663238752280     -0.41412136003113      0.59056629365722
  C   -0.76121792834184     -2.08970169919477     -1.21624683994967
  O   -0.78582843765929     -2.72516320675353      1.01693579608779
  O   0.51032766420424     -0.40184999550802      0.87751584886922
  O   -0.94569160852742      1.85643450821062      1.11910840181920
  C   -0.58127381437113      1.35007576691922     -1.10883686518515
  C   -1.35400276309711      1.75989507680995      2.41094109931153
  C   -2.18445833403401      0.89827935693477      2.98035970297179
  H   -2.37193779712777      1.00684817825579      4.03840041825801
  H   -2.69014150610408      0.09955919763415      2.45982901712841
  H   -0.88403109321107      2.54873831190730      2.98431325300512
  C   -0.99560075884738     -2.58650874524839      2.36083439812046
  C   -1.01135020671527     -3.64064466405879      3.15733273214686
  H   -1.09280213197546     -1.56770288459018      2.71764376874040
  H   -0.89191591854122     -4.64160391756165      2.76557172448355
  H   -1.11866894499411     -3.50375684235632      4.22228873795706
  H   -0.82507021511294      0.70370510095050     -1.94895860371803
  H   0.49180073438712      1.33818950448338     -0.92651215689642
  H   -0.90354046109684      2.36357316500805     -1.34068816984266
  H   -1.20457071669384     -1.44874047659696     -1.97598146766201
  H   -1.03660823525047     -3.12188631466071     -1.42720146422610
  H   0.32359959820176     -1.98974365444980     -1.22219633244569
