36
Coordinates from ORCA-job 75optt
  C   -3.34114073398553     -0.09218472563951     -0.67884318792900
  C   -2.30861130331845     -0.51228678633111      0.20698574215475
  C   -3.67627080292788      1.21664267551691     -0.55178406209976
  C   -1.84268514205750      0.47147041658514      1.01763005902113
  S   -2.69904230226176      1.93668104860320      0.67984231894146
  C   -1.97757861467501     -1.96619018923366      0.02559671799978
  C   -3.80574827419454     -1.21579416343417     -1.56183212679731
  N   -2.85722080517415     -2.28292807902228     -1.13430194066080
  O   -2.92035070860493     -3.44400641688794     -1.61047977706305
  C   -0.52675401608290     -2.22904747869707     -0.36514351041075
  C   -2.39175299199096     -2.83810426403008      1.21105988978900
  C   -5.23336605495234     -1.67491771255823     -1.26807895516665
  C   -3.60943139363280     -0.95394958239304     -3.05199809286672
  H   -3.42503775245007     -2.63601734836501      1.49313543193612
  H   -1.75110581935985     -2.63672963580293      2.07008193377425
  H   -2.29758499280567     -3.88880027438330      0.93593756200264
  H   -0.23298236530058     -1.58912095673479     -1.19742562209419
  H   -0.41395297675856     -3.27220329645113     -0.66127561389441
  H   0.13118081352338     -2.02800719629795      0.48169392465676
  H   -5.36818696004204     -1.85014146274718     -0.20068812469079
  H   -5.43312274185903     -2.60084285951703     -1.80776858754856
  H   -5.94769515586508     -0.91594500525023     -1.58862656140292
  H   -2.59284947579535     -0.61365332224471     -3.24868229526852
  H   -4.30736935277270     -0.18968219981784     -3.39552154755201
  H   -3.78994076551935     -1.87431498095858     -3.60778080101686
  C   -4.68783004291285      2.02194001674551     -1.30396888297583
  H   -4.21008805258057      2.70707818897725     -2.00659383072618
  H   -5.30770236941057      2.61417874815975     -0.63016369870430
  C   -0.73663565614365      0.43507558598016      2.02750906169310
  H   -1.04194069967715      0.96551702323822      2.93219574381793
  C   0.56714221433426      1.03321424467192      1.49512313200964
  H   -5.34364514842018      1.36254655111173     -1.87062914269542
  H   -0.57400538638421     -0.60458586028718      2.31810526515852
  H   0.42741104420256      2.08005020483854      1.22395564492595
  H   0.89583870593944      0.49816121712683      0.60346479677739
  H   1.35624607991675      0.97567787552981      2.24529913690569
