33
Coordinates from ORCA-job 767optt
  C   -3.66635643342369      1.82415012970347      0.36110854306094
  C   -5.07491614454334      1.87299107288946      0.33062593079307
  C   -5.79919684572896      0.73267932281031      0.14028074307159
  C   -3.00238452732550      0.63649705437958      0.20619018697182
  C   -5.15016299415082     -0.51231138214305     -0.03206772971800
  C   -3.73115288020193     -0.56595663017073      0.00124434649407
  C   -5.88167971729496     -1.70336300212828     -0.24540971933089
  C   -3.09331796666797     -1.81891137187560     -0.17913659514203
  C   -5.23895346542632     -2.89535567686747     -0.42079863460786
  C   -3.83276033624126     -2.95055305126975     -0.38596180952006
  H   -5.57366679752190      2.82393582181641      0.46052690040294
  H   -6.88154772637010      0.76199408992081      0.11500921021199
  H   -3.10581347653061      2.73952102737599      0.50848346544943
  H   -6.96314926170943     -1.65008617493764     -0.26988208788939
  H   -5.80346886666827     -3.80256844942456     -0.58849358450644
  H   -3.33002478780502     -3.89779096314275     -0.53807852029988
  C   -1.48163327705093      0.61583557590451      0.18474437786954
  C   -1.59742422648859     -1.91010184971342     -0.15778300668548
  N   -0.98550827210298     -0.74350554796218      0.47336439914498
  C   -0.98173542325241     -2.16720942087438     -1.56465947084560
  H   -1.27971993182354     -2.76070365683587      0.45219028198093
  O   0.24000332936736     -0.84722496253248      0.80101161890163
  C   -0.96305027626989      1.55264480258263      1.29811399277727
  C   -0.94317787649567      1.07260292073006     -1.17271818197311
  O   -0.64225935249239      2.67711336068125      1.06741931373765
  O   -0.99353500282337      1.08161861704283      2.54749361283295
  H   -1.16038218141343      0.13085749821788      2.56166178537566
  O   -1.63958243081961     -2.49372851469253     -2.50189290978919
  O   0.34292278824339     -2.04982824310328     -1.62409332383738
  H   0.70675426971728     -1.76123131639729     -0.76655318604298
  H   -1.37208900933309      0.46355197937623     -1.96963993675342
  H   0.14367487350935      0.99730907036787     -1.18851732873238
  H   -1.22766577286120      2.11020787027203     -1.32967268340235
