39
Coordinates from ORCA-job 76optt
  C   -3.42995767301020     -0.22693317085262     -0.65046355292721
  C   -2.34849313173614     -0.57498880004126      0.20686130531435
  C   -3.78805107007562      1.08080544028533     -0.58303597740523
  C   -1.86825250435795      0.46293363028361      0.93852518050183
  S   -2.77130958070779      1.88894947349383      0.55988257620105
  C   -1.98430330746384     -2.02697740483146      0.07992080553631
  C   -3.90921797103839     -1.40753036749597     -1.44653580496673
  N   -2.89893694276572     -2.42075617501865     -1.02923095174784
  O   -2.95160275771229     -3.60591377001018     -1.44357895737080
  C   -0.54342967661286     -2.26926027411369     -0.35750336918124
  C   -2.32663346277961     -2.85381413294594      1.31932717487188
  C   -5.29892373292723     -1.89640947560403     -1.03861296397465
  C   -3.82121656875599     -1.21363171933527     -2.95684276861412
  H   -3.35282027822206     -2.66620924957221      1.63518809146252
  H   -1.65793049782200     -2.59664765887658      2.14133834287644
  H   -2.21437359535146     -3.91329608251366      1.08814474462419
  H   -0.30199188892223     -1.66225240747840     -1.23022283753665
  H   -0.41289359660746     -3.32193926236272     -0.60942300349727
  H   0.14229498564664     -2.01096794422269      0.45083408819392
  H   -5.36110976674052     -2.02007611747367      0.04254767261359
  H   -5.49909239082975     -2.85502857263379     -1.51770187382851
  H   -6.05778970496292     -1.17799042099230     -1.35001146513598
  H   -2.83413117537927     -0.84662086672497     -3.23846048261761
  H   -4.57156581742099     -0.49316529276354     -3.28585979675949
  H   -4.00219517622044     -2.16586108523558     -3.45601354973035
  C   -4.82807664328910      1.82838170127506     -1.36049479789331
  H   -5.37922614435119      2.49696988335324     -0.69553006213959
  H   -5.55233976994149      1.10658624219161     -1.74305729616778
  C   -0.71781775683302      0.50352232759568      1.89749777460184
  H   -0.99793552541534      1.06720843998309      2.79018437998419
  C   0.54383283778178      1.10963075889576      1.27998015747434
  C   -4.23482231698282      2.63017223477551     -2.52069378139453
  H   -0.51365714181795     -0.51692395136597      2.22738392410383
  H   0.36315283731305      2.13854024326367      0.96761653199504
  H   0.84806120427409      0.54194245921673      0.39983989906450
  H   1.36660079748369      1.10811734417216      1.99538676645579
  H   -3.52617591593645      3.37261500884136     -2.15257704089440
  H   -5.01729513116822      3.14887870210115     -3.07521330736185
  H   -3.70168404834078      1.97125031273739     -3.20690577473045
