34
Coordinates from ORCA-job 774optt
  C   -3.38841900318573      2.04588302962087      0.23657512231446
  C   -4.77430321279628      2.10631859082281     -0.00284013494348
  C   -5.49552584826993      0.95656923473365     -0.14957100363207
  C   -2.74220274326591      0.84286027124489      0.31481036609083
  C   -4.85901943803382     -0.30398332587953     -0.08250540393621
  C   -3.45708689131941     -0.36743440706180      0.13395386332874
  C   -5.59203821421612     -1.50555425392692     -0.22732066630284
  C   -2.81299532947862     -1.63594770620898      0.17332422911056
  C   -4.95927274957178     -2.71088354438875     -0.16200318489127
  C   -3.56357042370790     -2.77306951152707      0.03562156236041
  H   -5.26439508826224      3.06966476672190     -0.05356667973321
  H   -6.56516998257448      0.99049175875814     -0.31678692201549
  H   -2.82870952664145      2.95915321804632      0.39092270285236
  H   -6.66175806969585     -1.44712809330166     -0.38715828603647
  H   -5.52061402552796     -3.63024629167468     -0.26490644006933
  H   -3.09174268739084     -3.74469161284724      0.07257452096688
  C   -1.25525205678283      0.81256410895363      0.57871506578338
  C   -1.30586008573345     -1.70534084495397      0.29815227003466
  N   -0.79977270110836     -0.52408285941404      1.02016631873441
  H   -0.87949401436821     -1.64649826739900     -0.71594218783004
  C   -0.78795999500370     -2.96749009632472      0.96668873766632
  O   0.36616322602360     -0.56816803944360      1.50432994373086
  N   -0.82901313018459      1.80525993112640      1.52431535806655
  H   -0.72092295741277      1.02375072375897     -0.35705656874592
  C   -1.26385392307947      1.72777527242293      2.83574826141344
  H   0.12478728814309      2.11087286155746      1.41118746405042
  O   -2.21228176343612      1.05848006237856      3.16214755239092
  C   -0.45170258435426      2.54853160818458      3.80684608374730
  H   -0.19940723408527      3.52514616068034      3.39452521474885
  H   0.47609501232580      2.01381500097644      4.02003218498053
  H   -1.01381864268765      2.66388842469099      4.72850974733651
  H   -1.25364840181735     -3.09483335660353      1.94395037190833
  H   0.28825260968537     -2.90124748240397      1.09455924385042
  H   -1.01011741218538     -3.83514533131934      0.34930129266914
