40
Coordinates from ORCA-job 778optt
  C   -3.52219297533128      2.10678837272646      0.46708272032974
  C   -4.92057763906197      2.12695927077631      0.30363383205401
  C   -5.59261171402899      0.97053378975341      0.03660964448432
  C   -2.81715716255116      0.93768073145994      0.37885547678315
  C   -4.89953522228680     -0.25912114514900     -0.05369525077514
  C   -3.48903251238614     -0.28579111278148      0.13654992098527
  C   -5.58859968989192     -1.46258396741879     -0.32300048428058
  C   -2.80706692516167     -1.53009805821998      0.09556315745955
  C   -4.90959325962563     -2.64416593983172     -0.38841085523730
  C   -3.51991896728278     -2.67263103258281     -0.16919563851130
  H   -5.45383584579472      3.06506796775658      0.38398446945525
  H   -6.66653997458372      0.97237243231865     -0.10453137915208
  H   -2.99328203359747      3.02930736200615      0.67076665364512
  H   -6.66100331288961     -1.42781178094685     -0.47082445366137
  H   -5.43444937100254     -3.56774837104320     -0.59460733258364
  H   -3.01198458701260     -3.62818638180753     -0.19532086641474
  C   -1.30644332966215      0.99999682472345      0.43851714661238
  C   -1.32547240813861     -1.65566694472411      0.39165528994626
  N   -0.69115086489288     -0.33645608639086      0.59900270406772
  C   -0.58801498610706     -2.32858280499445     -0.77374321959773
  C   -1.11837477710218     -2.44884349606500      1.68914806977873
  O   0.55048226811885     -0.33086402842772      0.83879520902470
  N   -0.86379109126459      1.83159841742986      1.53941464504572
  C   -0.76115044426012      1.60450106633763     -0.85962149212263
  C   -1.09918197478212      1.42961707920618      2.83352145299670
  H   0.00688058156250      2.31687004882595      1.38326435924844
  O   -1.88735053601753      0.55163571337438      3.10068270566139
  C   -0.29439062680977      2.16005607370792      3.87999228223215
  H   0.69220310340867      1.69632538050796      3.94035997054167
  H   -0.78936165640629      2.05735026085379      4.84113834675018
  H   -0.16685934247671      3.21324417271839      3.63254110661744
  H   -0.75200063803873     -1.77742655572951     -1.70076028896657
  H   -0.94574965418757     -3.34768574436058     -0.91040657772513
  H   0.47780793880165     -2.35350023704064     -0.55506960531110
  H   -1.11698203585966      1.02138589226726     -1.70819611871504
  H   0.32885377834148      1.57791625379342     -0.84039806727469
  H   -1.11208331294543      2.63001124736688     -0.96824859116637
  H   -1.63348664262099     -1.95249286357504      2.51088545765594
  H   -0.05338407850672     -2.50058425705101      1.90997257764067
  H   -1.51057807766464     -3.45848754977023      1.57334302247880
