38
Coordinates from ORCA-job 782optt
  C   -3.44886569587457      2.00372733894180      0.15396296751107
  C   -4.80325292209397      1.94974057078541     -0.22897888556285
  C   -5.43370776553407      0.74605098757197     -0.35577390176445
  C   -2.74645500855653      0.85888388856078      0.40650865397255
  C   -4.73697580514226     -0.46008094908669     -0.11084954894973
  C   -3.37061207806007     -0.40824913063866      0.27261484777039
  C   -5.37208886281061     -1.71707118046811     -0.24151703479652
  C   -2.68164515453884     -1.62554143437718      0.51192554442725
  C   -4.68236761874528     -2.87077286253535     -0.00690652794072
  C   -3.32564025110067     -2.82231071329752      0.36911141569205
  H   -5.34099615550172      2.87050766349726     -0.41276675798264
  H   -6.47685291077552      0.69429915285852     -0.64290016135900
  H   -2.96105489998198      2.96213970198478      0.27386416812291
  H   -6.41623996289343     -1.74426888366273     -0.52835495438037
  H   -5.17368940485338     -3.83006868583697     -0.10219480698283
  H   -2.78888350810595     -3.74038869217719      0.56837808820299
  C   -1.28226952169443      0.94106396857588      0.77031871444921
  C   -1.21082517288098     -1.59583003176314      0.85454774182427
  N   -0.82022343697601     -0.29408861852927      1.44459247438996
  H   -0.63486319180698     -1.68925639417723     -0.07659167173313
  N   -0.78008763522205     -2.66708906651762      1.70172800942201
  O   0.31001165534329     -0.24226755106752      2.00316576725774
  N   -0.93772572142638      2.08662932014973      1.55844868136280
  H   -0.69526062741551      1.01642843449945     -0.15541957428082
  C   -1.47434015207259      2.24727527989264      2.82689112936996
  H   0.01674952458220      2.39366254481524      1.45733913491475
  O   -2.44687295176379      1.64252926642904      3.19654939546871
  C   -0.73569145329009      3.24634025432367      3.68415285085977
  H   -0.46725321049606      4.13885059285952      3.11912975601495
  H   0.18184362359990      2.78088777895360      4.04957447785118
  H   -1.36016059968369      3.51233798325520      4.53144620154771
  C   -1.27564512082172     -2.78040130181765      2.99205639061562
  H   0.18919000941090     -2.92129278011194      1.59527850393528
  O   -2.27825627204244     -2.21915639386269      3.34935208502878
  C   -0.45111274900221     -3.67136200339583      3.88920876974621
  H   0.44939305466732     -3.13023586927015      4.18635991953366
  H   -0.14985343370284     -4.58539326056252      3.37754830440213
  H   -1.03035861273686     -3.91140892479850      4.77543983203908
