39
Coordinates from ORCA-job 791optt
  C   -3.49417568115848      1.94213447841113      0.05987525855115
  C   -4.90937509149881      1.86032411626928      0.07904057785523
  C   -5.56655463187055      0.67321009133635      0.08440419393838
  C   -2.74171919318165      0.77818874914047      0.07590443410016
  C   -4.83821270501945     -0.53320239824111      0.06780970254736
  C   -3.41377330634423     -0.48768842674806      0.07712283176467
  C   -5.52251756168124     -1.76736354417971      0.02489339574736
  C   -2.72089336328537     -1.73120825300647      0.06821487920051
  C   -4.82901460088605     -2.93945996538505     -0.01910928859407
  C   -3.42544763093603     -2.90867503866590      0.00492110627901
  H   -5.47353614236035      2.78484793323969      0.07809950466182
  H   -6.64898686590942      0.63513048832448      0.08669091011602
  C   -2.95617694384620      3.35530885847379      0.03028418421904
  H   -6.60557667716942     -1.75754714325474      0.01871269699270
  H   -5.34577298056369     -3.88894259165549     -0.06458876774813
  H   -2.88850841047943     -3.84772770059138     -0.02198040767706
  C   -1.21558004895483      0.82469144087693      0.01569857477104
  C   -1.21375769354162     -1.82087793191532      0.11498180430477
  N   -0.60916706204087     -0.49597580677217      0.36452556069924
  C   -0.66405099802474     -2.37313456583682     -1.21009860186107
  C   -0.75852184157826     -2.71598104138674      1.27571890067848
  O   0.65366690248607     -0.50749647523004      0.46121536089541
  C   -0.61240847473148      1.81185641077308      1.02798961666163
  C   -0.75037025647995      1.14929030264251     -1.41463259355031
  H   -1.16399300870824      1.78200254795902      1.96817364460868
  H   -0.61673463688209      2.82679864908065      0.64733807138238
  H   0.42000277633986      1.53014586329744      1.21105042365325
  H   -1.17120424321481      0.43700889335062     -2.12380731388808
  H   0.33752855882457      1.09463830394048     -1.45353879957784
  H   -1.06756156650959      2.14535969018500     -1.71505858270111
  H   -1.16261080080006     -2.34454742917085      2.21746468936151
  H   0.32765993467510     -2.71231894196744      1.32743546517664
  H   -1.10177137837959     -3.73751519793894      1.12658835502813
  H   -1.02869378438547     -1.79610739529703     -2.05907138240447
  H   -0.98655324134117     -3.40584228092152     -1.34034905983136
  H   0.42426515112681     -2.33808706463328     -1.18872634219375
  H   -3.74368020129827      4.02966627664520     -0.30194855493606
  H   -2.11214222374128      3.48697465365844     -0.64009108218002
  H   -2.64340007664961      3.68172144519352      1.02303663394877
