42
Coordinates from ORCA-job 795optt
  C   -3.43081916372645      1.94770404583617      0.04886068756470
  C   -4.84544992891731      1.87323879607416      0.06619250356459
  C   -5.54066019961975      0.70406314107380      0.06754363063371
  C   -2.68653838498174      0.78247174292784      0.06700330211172
  C   -4.80336237801839     -0.51092743618107      0.04742433354721
  C   -3.37581216340673     -0.47512716893161      0.06301860109136
  C   -5.48224827569983     -1.74831301761609     -0.00241685190553
  C   -2.68637498662680     -1.72014948703369      0.05618372263340
  C   -4.79021032727418     -2.92318504052235     -0.04799250547295
  C   -3.39013901901258     -2.89837247413735     -0.01592188862856
  H   -5.39742650821179      2.80661863236960      0.06756485864665
  C   -7.04275594220799      0.70401471140363      0.07321210224706
  C   -2.88745558740668      3.35890505175002      0.01833787657496
  H   -6.56307037184685     -1.75752283923045     -0.01351261564347
  H   -5.31200237355082     -3.86968509581133     -0.09987576306032
  H   -2.85437371770461     -3.83798041730525     -0.04199756455889
  C   -1.16027496992410      0.82012485792623      0.01205163977813
  C   -1.17964175689084     -1.82070710871384      0.11851371238079
  N   -0.56453898373850     -0.50190560002787      0.36797921240917
  C   -0.62036276272731     -2.38446891872536     -1.19792194474734
  C   -0.74469393300484     -2.71413351241962      1.28881031967731
  O   0.69753992854857     -0.52376609138962      0.47317141319987
  C   -0.55432686915509      1.80700269287533      1.02310525198506
  C   -0.68669331680015      1.13764642132041     -1.41721745041230
  H   -1.10825215042171      1.78202656554374      1.96204389931764
  H   -0.55286926459907      2.82107199719783      0.64019316315631
  H   0.47629994058905      1.52069016896635      1.20922324462418
  H   -1.10931376587567      0.42623375424572     -2.12622547884991
  H   0.40106037715172      1.07635326926322     -1.45194406179709
  H   -0.99685891489272      2.13490977078896     -1.72123478992363
  H   -1.15777876837061     -2.33552495716905      2.22379890880678
  H   0.34082148888426     -2.71672144074581      1.35357818458845
  H   -1.09244248373402     -3.73422521169513      1.14056150393941
  H   -0.97026437286097     -1.80790439278819     -2.05338517546098
  H   -0.94970202155748     -3.41499825437440     -1.32770954207786
  H   0.46786232903456     -2.35846744740272     -1.16433650154005
  H   -3.67027637357515      4.03572103230048     -0.31993233553442
  H   -2.03948967153208      3.48484884101168     -0.64818653174899
  H   -2.57817183710414      3.68681511829185      1.01173570386290
  H   -7.42187024256605      1.72388270581802      0.10305074096564
  H   -7.43757956615850      0.16962544846048      0.93961627556887
  H   -7.44470271050649      0.21954714677526     -0.81908379151356
