42
Coordinates from ORCA-job 796optt
  C   -3.45011325478419      1.95408843991614      0.02973873343375
  C   -4.86172287318334      1.87224549219693      0.04658520465188
  C   -5.52241730874718      0.68540906943073      0.06549728344981
  C   -2.70296196218476      0.78611776322220      0.06244147583260
  C   -4.80459157620974     -0.52789154030443      0.06466299237137
  C   -3.37725713020261     -0.47849939082221      0.07718469271644
  C   -5.50269805854531     -1.76865721805260      0.03480349777393
  C   -2.67280126113448     -1.71649996013302      0.08529727683433
  C   -4.77655962476805     -2.92496495971450      0.00685027936148
  C   -3.37429930232791     -2.89258295527213      0.03439800999007
  H   -5.42715409427060      2.79603317153021      0.03301570864169
  H   -6.60322781071127      0.67155156722377      0.06702146808291
  C   -2.91058181734685      3.36633455672332     -0.01580489262477
  C   -7.00487636244965     -1.80749594061299      0.02343710175359
  H   -5.28481568184181     -3.88098761749728     -0.02814890926615
  H   -2.83891627541944     -3.83293699923269      0.02035485685391
  C   -1.17587609385575      0.83519280881886      0.00536639859764
  C   -1.16590574096828     -1.80445663623327      0.13671651712371
  N   -0.56422846660424     -0.47709729367382      0.37152840039370
  C   -0.61164711148864     -2.37234861431247     -1.18002089630561
  C   -0.71185754856088     -2.68525871743744      1.30887335849226
  O   0.69856855418790     -0.48314768676436      0.46982721506594
  C   -0.57764632164447      1.83760896492281      1.00624445456374
  C   -0.70954093115908      1.14342080668007     -1.42848116671373
  H   -1.13792756590140      1.82679012350735      1.94167073289645
  H   -0.57297611387373      2.84591093980499      0.60834068552767
  H   0.45163460530737      1.55427934816444      1.20360096200785
  H   -1.12531623225793      0.41942632756395     -2.12865665062995
  H   0.37870494237667      1.09366582765164     -1.46446914413085
  H   -1.03124983128562      2.13355633600554     -1.74311246919799
  H   -1.11805783630649     -2.30281405623462      2.24528504893942
  H   0.37428779756050     -2.68032360350852      1.36259227825260
  H   -1.05423881249925     -3.70873311689400      1.17140724947994
  H   -0.97438008286052     -1.80605142766111     -2.03695270980482
  H   -0.93341476345772     -3.40670728651241     -1.29855274034863
  H   0.47663544669771     -2.33654593957516     -1.15629296622077
  H   -3.69834401050610      4.03692849180826     -0.35505747020534
  H   -2.06709978477168      3.49059168105723     -0.68825184176717
  H   -2.59693010488497      3.70406032414510      0.97276117839949
  H   -7.42383825721909     -1.32661889224853      0.90974644834353
  H   -7.35568556949347     -2.83769244952564      0.00160545973644
  H   -7.41213577240346     -1.29323973815032     -0.84951311235233
