42
Coordinates from ORCA-job 799optt
  C   -3.38949766615484      1.88671511023859      0.00623237878551
  C   -4.80115713625802      1.91534375777351     -0.01234942075544
  C   -5.49996833120308      0.73120679522540      0.02131722451648
  C   -2.66364460967656      0.72877486235624      0.06449316556649
  C   -4.78192717578309     -0.50023788548059      0.05904852538292
  C   -3.35574884975708     -0.51011538040686      0.08548965501449
  C   -5.46904928961946     -1.73774321017267      0.05490222464133
  C   -2.66514880581410     -1.75140913174168      0.11120451273951
  C   -4.78385498295423     -2.91844766065183      0.05902009704345
  C   -3.38002255673662     -2.92218497459986      0.08492801325577
  C   -5.48838473914371      3.25609923351212     -0.06817530677093
  C   -7.00461233125114      0.70540349415177      0.00929872635346
  H   -2.87184983065259      2.83730479219033     -0.03217812997044
  H   -6.54937632326301     -1.74894017731544      0.03813905771437
  H   -5.31924772882272     -3.85894468388247      0.04423170973393
  H   -2.86234693518610     -3.87221628941919      0.08273553344723
  C   -1.15088704577508      0.80656326295709      0.04348742605932
  C   -1.15150170792942     -1.82692566144651      0.12198467558398
  N   -0.54289188933967     -0.50148157865781      0.38479970236310
  C   -0.63855623449982     -2.33596619331204     -1.23458972565621
  C   -0.65792377690259     -2.75028832633425      1.24199192925190
  O   0.71718041211485     -0.49962227043594      0.51520946867073
  C   -0.63241096943757      1.80266307576285      1.08638640662169
  C   -0.66310047397929      1.21812295861049     -1.35500756228538
  H   -0.99550504773125      1.53327458790240      2.07811551058012
  H   -0.96916686157313      2.80983825395856      0.85080001951890
  H   0.45454990114053      1.78838932742219      1.08939877045318
  H   -1.07083588212773      0.55970481240577     -2.12172463529023
  H   0.42550887701128      1.17615842066077     -1.38250045742412
  H   -0.99042599025654      2.23472198247078     -1.57319438210109
  H   -1.03743456292982     -2.40994989115016      2.20540365687144
  H   0.42898750995222     -2.74024568098112      1.26388199955230
  H   -0.99716201198053     -3.76979147738549      1.07187717532245
  H   -1.02706824544049     -1.73013446538584     -2.05281882578518
  H   -0.96590932406556     -3.36397862594444     -1.38942698659734
  H   0.45037926293827     -2.29966056051283     -1.24227374759376
  H   -4.75600450599711      4.06048952256031     -0.10771942455055
  H   -6.11678012065507      3.42044729172956      0.80900665233933
  H   -6.12752608370523      3.34239855677751     -0.94845856830756
  H   -7.42456163008948      1.70685611704879      0.00576777994085
  H   -7.39511102776250      0.18442226959761      0.88592544930130
  H   -7.38235527870280      0.18301563990430     -0.87248027353729
