48
Coordinates from ORCA-job 79optt
  C   -3.30913946369186     -0.20991461710990     -0.77245003831176
  C   -2.29709857449331     -0.58537774045147      0.17653792485745
  C   -3.70785600472307      1.09035782483670     -0.66836272538115
  C   -1.88812471758984      0.44479050119944      0.98223237234293
  S   -2.79928893343425      1.85440122668302      0.57264161211534
  C   -1.96229274636996     -2.05848641382796      0.05072144740293
  C   -3.66163795240003     -1.34993809708550     -1.69467500037434
  N   -2.84770634972389     -2.42904709624521     -1.08655456534089
  O   -2.85359242810625     -3.59456195432130     -1.55459473593846
  C   -0.52468749123541     -2.36910044135619     -0.36371239990325
  C   -2.40781881053238     -2.93006522471885      1.22963359605085
  C   -5.12416002987224     -1.78494564743546     -1.67110489109039
  C   -3.16018168712823     -1.16852073587416     -3.13078575905285
  H   -3.40251701589008     -2.63227464667953      1.56286873028857
  H   -1.72263816389204     -2.86790996303685      2.06904040173035
  H   -2.44642898484627     -3.96398266200771      0.88552112771580
  H   -0.22292989026705     -1.73626350548566     -1.19918923926274
  H   -0.46911317730503     -3.41281728928159     -0.67363789975976
  H   0.16815301561084     -2.21236703406397      0.46085896483402
  H   -5.47943032617377     -1.88001416222745     -0.64451916701738
  H   -5.21129685588786     -2.75153458828310     -2.16762276798807
  H   -5.75053355068594     -1.06495496059012     -2.19566257800066
  H   -2.12686681792420     -0.82020941233688     -3.12866463781608
  H   -3.76835488633525     -0.45341337589259     -3.67779321281589
  H   -3.20641228774977     -2.13366216442887     -3.63607910319517
  C   -4.80446421892944      1.92050974140578     -1.29540328457661
  C   -6.15084510044450      1.63845765862382     -0.61941820667071
  C   -0.76517948181876      0.60143534368708      2.00012701158034
  C   -1.02577778885321      1.80175557595545      2.92011618183105
  C   0.54996660575988      0.84914381715304      1.24407662588801
  C   -4.91956899016072      1.79202566842446     -2.81181558023495
  C   -0.61158103107183     -0.63240173180075      2.89132875310460
  H   0.48114526606606      1.75817477697500      0.64457334326700
  H   0.77935483074548      0.01856285538028      0.57658274709144
  H   1.37348777492361      0.96330899067337      1.95277165667959
  H   -3.95197717660387      1.91274203279933     -3.29868175886669
  H   -5.59572177416373      2.55948649331581     -3.19145748009751
  H   -5.33374490034557      0.82569559729970     -3.09680003640359
  H   -1.07073983259741      2.73898663672299      2.36330731898138
  H   -0.21068795801018      1.88651184028272      3.64013785428161
  H   -1.96019830514743      1.68186345597568      3.47053847143756
  H   -1.55737979477019     -0.89664813523070      3.36592957739527
  H   0.11900261427633     -0.41972179568340      3.67409455595866
  H   -0.24743969464633     -1.49079643650688      2.33345509409441
  H   -6.08731568852721      1.80174614605974      0.45650143356229
  H   -6.45448606671600      0.60446910812282     -0.78672503283497
  H   -6.92435057032598      2.29326467665152     -1.02482056602160
  H   -4.55099458799173      2.96404986373431     -1.08508613553600
