29
Coordinates from ORCA-job 7optt
  C   -3.22574417291527      1.34875931728486     -0.70758985938156
  C   -3.08081426115860     -0.01296721795770     -0.92995789920658
  C   -2.17114341051322      1.87734505257560      0.22455782751413
  C   -1.91083165156084     -0.58690367221200     -0.17915858960228
  N   -1.40570712723093      0.63743282071076      0.48551210151806
  O   -0.39767264967907      0.62240482096598      1.23627084463672
  C   -2.32014690807736     -1.60859202202573      0.87946776456101
  H   -2.69524721925240     -2.51397054287530      0.40067461140853
  H   -3.10100453789192     -1.20354903473529      1.52332199056877
  H   -1.45290303385048     -1.86152442824749      1.48937551361670
  C   -0.82839843699172     -1.15379462031790     -1.09413648233869
  H   -1.19386463469122     -2.05184268137922     -1.59367065269850
  H   0.04845929314898     -1.40910435202364     -0.49923583844768
  H   -0.54308098186295     -0.42284274844703     -1.85080952852378
  C   -2.74913089050854      2.40736734859031      1.53486244645890
  H   -3.40878458167813      1.66919885823066      1.99131037225003
  H   -3.31659089720699      3.32071793910639      1.35230846231301
  H   -1.93243006339752      2.62629738582951      2.22264668363644
  C   -1.26223512175185      2.91346317126879     -0.43163266109649
  H   -1.82001123296395      3.83022054658406     -0.62651901837717
  H   -0.86546581277004      2.53577663471607     -1.37407163471442
  H   -0.43226406626676      3.13658835026577      0.23859153635824
  C   -3.97630655668649     -0.65408655170163     -1.76949573404002
  C   -4.25723747342248      2.02879800976699     -1.32802554083702
  N   -4.97311372073986     -0.01228352656287     -2.37370648099197
  C   -5.10197413302247      1.29378947688023     -2.15246736274137
  H   -4.41207175721710      3.09118690334765     -1.18667725408576
  H   -5.92535632356957      1.78255540871256     -2.66149150009345
  H   -3.89507763627116     -1.71876064635041     -1.96797411766376
