45
Coordinates from ORCA-job 803optt
  C   -3.42325047975912      1.92648188196170     -0.02762128807093
  C   -4.85285555413562      1.88793887370599      0.07809604815213
  C   -5.52608812149695      0.69397620078597      0.05848389475396
  C   -2.67642497629022      0.76359898924024      0.02133221735451
  C   -4.78399221305363     -0.52195278697472      0.04104349560344
  C   -3.35890459136517     -0.49559626004349      0.06074539847622
  C   -5.46085672503117     -1.76354496694370      0.02125381069458
  C   -2.67053777627891     -1.74126855475511      0.07287878529326
  C   -4.77181814354141     -2.94072280390647     -0.00073498190472
  C   -3.37293123014715     -2.92075224125992      0.02195964523805
  C   -5.60380409150325      3.19365110863471      0.21133863837128
  C   -7.03142822115863      0.61946572783728      0.02598889473296
  C   -2.84427119263430      3.30989499630810     -0.23605266830662
  H   -6.54017737356794     -1.78373248305791      0.02352730916969
  H   -5.29836520408029     -3.88573776140242     -0.02704321638084
  H   -2.83853476356575     -3.86106462536304      0.00487539197374
  C   -1.14479902171465      0.80058849895566      0.00546151729822
  C   -1.16420100056764     -1.84084706373173      0.11646341020625
  N   -0.55774672278673     -0.52258922188937      0.37640729197556
  C   -0.61928764139343     -2.38396575502683     -1.21474775148195
  C   -0.70956100696783     -2.74834028286006      1.26806542313574
  O   0.70112651574620     -0.53775123987537      0.51633005717560
  C   -0.58358818511708      1.75302006824660      1.07434635136540
  C   -0.59757881106168      1.11599159616652     -1.39898924922255
  H   -1.03950358716806      1.52573498201583      2.03865541615735
  H   -0.76373273275289      2.79454337984246      0.84316813939071
  H   0.48904763814837      1.59972499627028      1.15016005949868
  H   -1.02122075822340      0.42893596010797     -2.13108935281060
  H   0.48571583796677      0.99893078832877     -1.38539103955842
  H   -0.83642754444746      2.12579505108083     -1.71946682379191
  H   -1.10797613835665     -2.38177423328204      2.21414047119789
  H   0.37652900222891     -2.75082793767119      1.31640599560220
  H   -1.05805520325897     -3.76683810867192      1.11280009159951
  H   -0.99236536097193     -1.80520815118601     -2.05884702423531
  H   -0.93685437225436     -3.41790993338974     -1.34811158448524
  H   0.46926648476713     -2.34304310560777     -1.19901051546705
  H   -3.49213334320258      3.87885163282598     -0.90166589405885
  H   -1.86131953760359      3.30361271828411     -0.68259355691375
  H   -2.77870656098364      3.86706891933897      0.70179531285744
  H   -5.01819697973926      3.93308908512976      0.75227052839062
  H   -6.53013266101538      3.06152174916727      0.76241613882802
  H   -5.85277056824249      3.62600907304712     -0.76214830811287
  H   -7.48986298707147      1.58971126290341     -0.12952917499398
  H   -7.43374534178103      0.19695975917542      0.95010315669420
  H   -7.36127875456553     -0.02097978246211     -0.79282046139161
