45
Coordinates from ORCA-job 822optt
  C   -3.45187221602791      1.90006762949779     -0.22271532191550
  C   -4.85644452004942      1.90960962297220     -0.17756606535361
  C   -5.57687043612647      0.76689164221544      0.03951935849348
  C   -2.73130796892177      0.75039203709641     -0.04683458203547
  C   -4.85981574929438     -0.45834448394317      0.21192256644591
  C   -3.43066527827388     -0.46933950737601      0.16412128342203
  C   -5.53790234412567     -1.68326338088178      0.42393455127044
  C   -2.73627241297370     -1.70170438586077      0.31541275816558
  C   -4.84945780066006     -2.85373021312703      0.55838384077251
  C   -3.44725778068878     -2.86059412673236      0.49670968939301
  H   -5.36421193673561      2.85476679753338     -0.31309786610656
  C   -7.09360825488489      0.78246781561077      0.04868059318831
  H   -2.93932687779470      2.83678215603026     -0.39950234709314
  H   -6.61666032407518     -1.69925123408951      0.47243783376293
  H   -5.38143228482892     -3.78346347573841      0.71269802152585
  H   -2.92920053749765     -3.80518330322443      0.59177746729645
  C   -1.21966855759403      0.82225256868980     -0.11376011925286
  C   -1.22565125887536     -1.78867241869129      0.21254562824749
  N   -0.59821923965083     -0.45050237318506      0.31864223762492
  C   -0.83096381404848     -2.40292998264677     -1.14054317609083
  C   -0.63758736751854     -2.62598278074437      1.35339057753609
  O   0.66711415589056     -0.44262088160675      0.37860743476479
  C   -0.68252108984857      1.90035028995487      0.83516273916026
  C   -0.76430187839657      1.12275674971869     -1.55049462640892
  H   -1.02283117998603      1.70973706003790      1.85291798360208
  H   -1.03013229063239      2.88445017762496      0.52803970742473
  H   0.40450975679218      1.88861240089546      0.81461902298591
  H   -1.18034434370851      0.40144078274298     -2.25325169229780
  H   0.32363150521076      1.08717198348275     -1.59663392873623
  H   -1.10502983205854      2.11582370421270     -1.84322498381588
  H   -0.94741152807461     -2.22209810757879      2.31714490446283
  H   0.44729083040306     -2.60491137552324      1.29113753973634
  H   -0.97107948312453     -3.65868030413839      1.28121732221706
  H   -1.28919011430447     -1.85910987962705     -1.96629666591031
  H   -1.17054803358312     -3.43768175860381     -1.18706158505721
  H   0.25348951225213     -2.37375853800829     -1.24459783520949
  C   -7.69253190003539      2.15814910592570      0.32993183425820
  H   -7.27793937339814      2.60053344376148      1.23636577497135
  H   -8.77221788395854      2.06892419921466      0.45443755584340
  H   -7.51828926480763      2.84597352696157     -0.49954583598191
  C   -7.64136783218142      0.24499300288633     -1.27970928729453
  H   -7.42888063454922      0.12269787748630      0.85291060573076
  H   -8.73080972139450      0.18631575012115     -1.25110328294166
  H   -7.24716049339173     -0.74317870407384     -1.51502978996879
  H   -7.35762192246829      0.91854089072752     -2.09102984083202
