37
Coordinates from ORCA-job 86optt
  C   -3.50625755918685     -0.52436305928878     -0.90225569493002
  C   -2.52917152404947     -1.14718601120448     -0.20393017327125
  S   -3.82061277892301      1.04899142604698     -0.32612598475283
  C   -1.99761344053128     -0.33832732143587      0.84102973336152
  C   -2.60873559083960      0.88421461618001      0.89325212354088
  C   -2.24508023609006     -2.52571519206913     -0.72016324530311
  C   -4.07095454443047     -1.34932396573557     -2.01785157735601
  N   -3.23559220443736     -2.56928915229947     -1.83228291172562
  O   -3.35739316211728     -3.57094482093578     -2.58069789847357
  C   -0.83595928296806     -2.68448645643742     -1.28407579427535
  C   -2.55909118476619     -3.62933638811752      0.28597095910939
  C   -5.54329647087685     -1.70703850220880     -1.83504900427641
  C   -3.81707662252621     -0.76316690282760     -3.40386684249917
  H   -3.56691861284304     -3.50868079805371      0.68363443132675
  H   -1.84693589662589     -3.58859684382382      1.11034881658922
  H   -2.48625141778597     -4.59892590765187     -0.20697182225475
  H   -0.62082575982124     -1.89498998729350     -2.00435707960174
  H   -0.75261355400052     -3.65048820468031     -1.78229377742882
  H   -0.10841940280948     -2.63111528369126     -0.47399832707947
  H   -5.71719866595556     -2.11520010873531     -0.83965952882921
  H   -5.82675708288378     -2.45085012199090     -2.57969748975976
  H   -6.16294886342164     -0.81864736639204     -1.96430483304010
  H   -2.76527864967776     -0.50366039812531     -3.52244844366976
  H   -4.41930175822005      0.13515387104376     -3.54591215754694
  H   -4.09003503235091     -1.49901082499532     -4.16021623090510
  O   -0.99712678151077     -0.82067416735148      1.61000736334831
  H   -2.43215923029972      1.69681314813130      1.57647843967752
  C   -0.48686730146381      0.02072617511514      2.64700352411326
  H   -0.38486709052982      1.03360768936090      2.24205777137845
  C   0.88295446824613     -0.52292758697365      2.99528638103912
  C   -1.42550094131094      0.02052000006694      3.84201539764131
  H   1.53492007033303     -0.51087199868286      2.12298372613205
  H   0.79388346643587     -1.55053962829830      3.35027887519284
  H   1.33691282774780      0.07840978416050      3.78290500673606
  H   -2.43181996146515      0.32884410640582      3.56179998164773
  H   -1.05565484145780      0.70134597220357      4.60943953759675
  H   -1.47790538658618     -0.98355978941481      4.26526674854779
