28
Coordinates from ORCA-job 92optt
  C   -3.09838942334995     -0.84189541553617     -0.83785147117366
  C   -2.18079986599465     -1.70475540644786     -0.34924335696885
  S   -2.98759451707743      0.70725792187010     -0.10734631518220
  C   -1.33587050449893     -1.14207624644996      0.65116581967485
  C   -1.66879140032164      0.15836189327857      0.87503318426361
  C   -2.29015273215662     -3.05634552411363     -0.99226867123756
  C   -3.99582248433839     -1.41981801021775     -1.88775487905606
  N   -3.41467675846856     -2.79074473095408     -1.92924706467660
  O   -3.86486818994972     -3.67495610164531     -2.70041012380567
  C   -1.05040507141974     -3.45519820037016     -1.78750947858181
  C   -2.69124557927765     -4.16002649346197     -0.01692133472957
  C   -5.46266844095528     -1.50161519573698     -1.47281559150320
  C   -3.85217231026539     -0.76537626161352     -3.25892058287526
  H   -3.57508762621947     -3.86734027945541      0.54982446966756
  H   -1.87610166193896     -4.35675934603548      0.68088307115541
  H   -2.91108752095091     -5.07226014060864     -0.57178423363201
  H   -0.76616555271261     -2.66090236645716     -2.47762367468700
  H   -1.26062750803290     -4.36115445606900     -2.35620170018982
  H   -0.21715634062786     -3.64730938742615     -1.11012018169403
  H   -5.55706207408327     -1.96731264531659     -0.49205827224179
  H   -6.01195701852903     -2.09508944531669     -2.20370906760377
  H   -5.89576575425994     -0.50123229069712     -1.42984225606987
  H   -2.80276652778683     -0.70868784237626     -3.54731556866968
  H   -4.26605639189769      0.24376326694228     -3.23724833597221
  H   -4.39360512151228     -1.35503647350463     -3.99870179759883
  O   -1.13351710900928      1.05868711696509      1.72938363198041
  H   -0.53889082172649     -1.65587323592797      1.17080296829236
  H   -0.40698569263849      0.64954529668246      2.21143081311525
