32
Coordinates from ORCA-job 95optt
  C   -3.08061778648855     -0.87705186171636     -0.92583817399542
  C   -2.08288373391007     -1.84889236570704     -0.61358153516789
  C   -2.91090929734932      0.28215060496465     -0.25267694306753
  C   -1.17197494504693     -1.41865647361450      0.28158816842443
  S   -1.51521103464642      0.23095661521029      0.77310773746617
  C   -2.29083063031717     -3.12392062692968     -1.37242562532846
  C   -4.07503036187923     -1.40183752630191     -1.92118491937739
  N   -3.55321945425602     -2.78755834376040     -2.08995476364433
  O   -4.09035598881935     -3.59350473627580     -2.88942830196192
  C   -1.18635879441015     -3.40462389785824     -2.38854780410774
  C   -2.52787834676746     -4.33413724152418     -0.47448803307938
  C   -5.50527298440526     -1.47599575217481     -1.39112274122738
  C   -4.02825125243549     -0.68418292999418     -3.26974964656219
  H   -3.30619772982047     -4.12059623655237      0.25854465191753
  H   -1.60479922525485     -4.58514099351160      0.04970297506727
  H   -2.83629613842343     -5.18440885316054     -1.08303886090354
  H   -1.02332694918489     -2.53651182892719     -3.02728796227475
  H   -1.47134047953971     -4.25423106545645     -3.00916271046311
  H   -0.25810529984213     -3.63129451778015     -1.86389981573261
  H   -5.52806325882701     -1.96539357364397     -0.41791973321364
  H   -6.12026309976214     -2.04201081998935     -2.09094901844285
  H   -5.93141111193028     -0.47564087100842     -1.28836014900407
  H   -3.00511239370362     -0.63277697985300     -3.64086219494955
  H   -4.41301843553748      0.33337426083372     -3.17509416691940
  H   -4.64265425971904     -1.22474706916068     -3.98980446698596
  O   -0.08257925124940     -2.07351052411382      0.74214314568746
  O   -3.63893344510003      1.42511715036552     -0.25718329294826
  C   -0.16425045280091     -2.46696735162968      2.10850077582424
  H   -4.38359606423959      1.32299705445512     -0.85994199618835
  H   0.74707043746813     -3.01698612353354      2.32865098017013
  H   -1.03693938093388     -3.10512189290055      2.26629677329891
  H   -0.23191885086772     -1.59211522875078      2.75902764768966
