28
Coordinates from ORCA-job 9optt
  C   -3.22190603064743      1.36107156741913     -0.70920915011302
  C   -3.07957861504729     -0.00140264648112     -0.93334431109635
  C   -2.17238339569313      1.89027783025321      0.22529575869523
  C   -1.91385688306333     -0.57916218093765     -0.18125061765218
  N   -1.41202141601901      0.64240178886264      0.48617039394988
  O   -0.40615835159879      0.62700364947143      1.23951707300350
  C   -2.34940440507815     -1.60792135742676      0.85765800840148
  H   -2.75405351983286     -2.48503978977454      0.35336094817475
  H   -3.11520748993183     -1.19418875848532      1.51455269544086
  H   -1.48696389222737     -1.89591617801940      1.45821918451652
  C   -0.84898926915414     -1.14899743615505     -1.11241363070684
  H   -1.24820062609557     -2.02111194309211     -1.62949321219673
  H   0.02201597134557     -1.43806517586288     -0.52492352359478
  H   -0.54560900329248     -0.40785772677864     -1.85246353815458
  C   -2.74974902077264      2.41945593495920      1.53621969265260
  H   -3.41070622258634      1.68207256790155      1.99194475648574
  H   -3.31523118163342      3.33443252303401      1.35458915788930
  H   -1.93344079839019      2.63647165431854      2.22488569145080
  C   -1.25434971844212      2.92249268409160     -0.42437147173312
  H   -1.80653223174441      3.84222901497135     -0.62208592023242
  H   -0.85252003006817      2.54373558073409     -1.36418530992138
  H   -0.42782283065792      3.14199810663581      0.25109330151805
  N   -3.88050023163959     -0.70101293971097     -1.71779874804034
  C   -4.26706550990580      1.98660963128575     -1.35751043434829
  C   -4.85531955434436      0.00424278591312     -2.29272432868941
  N   -5.08906443118134      1.30371764050734     -2.15477617433567
  H   -4.46225226304371      3.04938253909365     -1.24744802539851
  H   -5.52877904925418     -0.54256936672799     -2.94293826596512
