29
Coordinates from ORCA-job 102optt
  C   -2.43367550687560      1.11870040998747      0.08556988518770
  C   -1.42895590888967      0.33051514939410     -0.42111374921050
  C   -2.52556290906686      2.51316780886576     -0.27441999136213
  C   -1.52367221288859      3.03113898166057     -1.16369752550404
  C   -0.55463107641082      2.21314922309722     -1.67345645441378
  C   -0.48849294534039      0.84267917943172     -1.34183884502797
  N   -1.38469517164554     -1.04718342445128     -0.06026448158130
  N   -3.37751132455214      0.63523197215974      1.03244301423900
  C   -3.53318261995731      3.32342428780081      0.25264901891235
  N   -4.36642171313000      4.00446382775056      0.70386782045960
  C   -4.34676509745926     -0.29056278999966      0.85831228644129
  H   -3.58332367478614      1.25544778028496      1.80493956403417
  O   -5.22434270865898     -0.53934620800973      1.65609770961621
  O   -4.22232898045805     -0.96080285262981     -0.31560362948627
  C   -5.23303703758755     -1.93094840586075     -0.54533933783022
  H   -5.21509043254792     -2.69745588539399      0.22894693683209
  H   -5.00967652785663     -2.36485332079778     -1.51662473731877
  H   -6.21686595964596     -1.46332243553505     -0.55398114286568
  C   -0.34565168991397     -1.75182672820726      0.42970354438726
  O   -0.36853264497864     -2.94768700549421      0.64991574595026
  O   0.74043867763623     -0.98993058165683      0.66948139335165
  C   1.85289034180338     -1.69529297891701      1.18793155311800
  H   2.17477850237825     -2.47513342974527      0.49744492445207
  H   1.60843653269937     -2.15780332906461      2.14432733225718
  H   2.63806344340464     -0.95423851918725      1.31520160759249
  H   -1.56177286535105      4.07828588701473     -1.43454610888303
  H   0.17817942915171      2.62709376848264     -2.35700236971495
  H   0.27755487943133      0.19427344909187     -1.73875233227575
  H   -2.22984279850371     -1.58379383007163     -0.17824163135687
