17
Coordinates from ORCA-job 105optt
  C   -2.95931860714525      0.51319931066928     -0.00110467121169
  C   -2.80294528678645     -0.84267571222192     -0.00683389293087
  C   -1.80077300075757      1.36146199305347      0.00142608684118
  C   -0.50875922098682      0.74909667584979     -0.00211037244428
  C   -0.36808761383049     -0.60627775566339     -0.00784163668932
  C   -1.51194084627733     -1.45923791173948     -0.01045495032050
  H   0.36819069289113      1.38450552962629     -0.00024431093006
  H   0.61973151402477     -1.04989739831095     -0.01049157905551
  C   -4.32072099410035      1.14430811599060      0.00262236774663
  C   -1.93245739683708      2.76005649587829      0.00728190797597
  H   -3.68186724979668     -1.47745249947086     -0.00866987510787
  C   -1.37777661282098     -2.85739923960849     -0.01637802072344
  N   -2.04125819589883      3.91726605021096      0.01205861217738
  N   -1.26816848634690     -4.01376722960581     -0.02135017345544
  H   -5.10278306409845      0.38501536736983      0.00025343360488
  H   -4.45382613723657      1.78972514264698     -0.87002756254540
  H   -4.45226949399613      1.78265306532541      0.88069463706833
