20
Coordinates from ORCA-job 108optt
  C   -3.04659403830289      0.55422228158420     -0.00084223822498
  C   -2.88261087505281     -0.80057295026591     -0.00655904899363
  C   -1.88937487457670      1.39861279140773      0.00172366591765
  C   -0.59591849103829      0.78813642728085     -0.00184417326956
  C   -0.43193530759174     -0.56665883616123     -0.00756147314211
  C   -1.58915462012441     -1.41104957993440     -0.01012727829293
  H   0.27853860147655      1.42903590496198      0.00006691256221
  C   0.93162816936048     -1.19360667473030     -0.01113881986173
  C   -4.41015791558640      1.18116939475838      0.00272893479683
  C   -2.01951153518091      2.79777779119220      0.00764553523349
  H   -3.75706803549053     -1.44147232230870     -0.00847083767729
  C   -1.45901685524131     -2.81021461975251     -0.01604784312477
  N   -2.12743215420394      3.95490800950959      0.01254145662047
  N   -1.35109225069870     -3.96734439009656     -0.02096772391280
  H   -5.18929337795374      0.41880981814606      0.00028574319259
  H   -4.54624111875655      1.82562747025958     -0.87009755915476
  H   -4.54486545738762      1.81861186748043      0.88090518585234
  H   1.71076445629263     -0.43124818358068     -0.00866676445219
  H   1.06634277545508     -1.83102308040601     -0.88933305073481
  H   1.06770290460180     -1.83809111934471      0.86166937666597
