32
Coordinates from ORCA-job 114optt
  C   -3.72893177660627      0.47635672341643      0.18909619038189
  C   -3.47855164629284     -0.88001811798386      0.07917087556569
  C   -2.67477289798524      1.36447955531502      0.62319811665404
  C   -1.40013735606237      0.82857800443654      0.97108892627119
  C   -1.16782431538848     -0.50639459083225      0.90323272093313
  C   -2.18621395010384     -1.40130871549609      0.46204420134306
  H   -0.62103783200440      1.50684902431345      1.29555082015638
  H   -0.20293458915442     -0.91167524056794      1.18080097403653
  C   -5.08842452295472      1.09250079343888     -0.11150310213994
  C   -2.81287678538181      2.76161126474158      0.69924531226991
  C   -4.50734443695432     -1.86970813281811     -0.44992263697889
  C   -1.86469609668163     -2.76997446938780      0.46040022489054
  N   -2.88319402532625      3.91921619244237      0.77062526243179
  N   -1.55997319265276     -3.89104523749134      0.48004932846014
  C   -5.06146122363737      2.00236083172657     -1.34572316762396
  H   -4.42492312755453      2.87298260322405     -1.19111706891517
  H   -6.07008771772542      2.35865826398353     -1.57211161632151
  H   -4.68797081919820      1.45295233921996     -2.21215898048996
  C   -5.69003984727581      1.81238314909962      1.10370771443404
  H   -5.78590395090809      0.29151692755445     -0.33682854565125
  H   -6.72187884456990      2.10026217117522      0.88466809461470
  H   -5.14039878712626      2.71422424272359      1.36695524184862
  H   -5.69643633000106      1.14817860476670      1.96990261761698
  C   -4.01866013157537     -2.61773076891785     -1.69843276099965
  H   -3.67162594999199     -1.90754844682804     -2.45128272993564
  H   -4.84350732733180     -3.19445601578579     -2.12561254526497
  H   -3.20685148128099     -3.30849088761605     -1.47845271054605
  C   -4.99673017412313     -2.84174846116859      0.63080308126123
  H   -5.38013733140512     -1.31445092174288     -0.77962652999218
  H   -4.19294269990676     -3.48325883414027      0.99077366604450
  H   -5.78577384501794     -3.48365671899589      0.22960619927044
  H   -5.40190698782049     -2.28901513180520      1.48069282637435
