32
Coordinates from ORCA-job 116optt
  C   -3.10914428929445      0.58665397872859     -0.17398145759625
  C   -3.01784496844849     -0.68675237985799      0.30988781918491
  C   -1.89763430660269      1.28203120668432     -0.50555564392969
  C   -0.64349355478982      0.62284217668740     -0.31205689888883
  C   -0.55219439779329     -0.65056374274750      0.17181415633902
  C   -1.76370487936110     -1.34594464318150      0.50338189470180
  H   0.25412094969010      1.17101050986669     -0.56793851939640
  C   0.76794094246000     -1.37419611626075      0.33298244273922
  C   -4.42927618045506      1.31029701186547     -0.33512883354269
  C   -1.92453454243972      2.58488223950691     -1.03140601944889
  H   -3.91545950524452     -1.23491579809974      0.56578019399862
  C   -1.73680645272712     -2.64879711365499      1.02922932608243
  N   -1.94886676557077      3.66410010498532     -1.46191029866854
  N   -1.71247095366427     -3.72798847246074      1.45979962175701
  C   -4.60404038655945      2.36277766043925      0.76677256670728
  H   -4.65189458222811      1.86925754676491      1.74074255575462
  H   -5.52810588675425      2.92775297140048      0.61904233164543
  H   -3.77163633270695      3.06561390588047      0.77545854162050
  C   -5.64351353089669      0.38849759854125     -0.36677491465938
  H   -4.38611571944737      1.84500377866284     -1.29062379388564
  H   -6.54337978591861      0.96473812995738     -0.59187338899779
  H   -5.79614548424893     -0.09348540996131      0.60168284789798
  H   -5.53391304085674     -0.39296071829939     -1.11990807703373
  C   0.94273209854222     -2.42667817264732     -0.76891354852669
  H   0.11033530228785     -3.12952274454716     -0.77761135873415
  H   1.86680067864223     -2.99164436797953     -0.62116829852586
  H   0.99059618005714     -1.93315984640081     -1.74288387142666
  C   1.98216934974754     -0.45238512735196      0.36464184942218
  H   0.72477043274489     -1.90889893277444      1.28847904744255
  H   2.88203821155889     -1.02861596475254      0.58975556346417
  H   1.87255105899996      0.32907551971356      1.11777005527349
  H   2.13481034127772      0.02959521129281     -0.60381589076999
