15
Coordinates from ORCA-job 117optt
  C   -3.00790272993680      0.54333229783331     -0.00101151137206
  C   -2.87920526336735     -0.81540109123837     -0.00675846312533
  C   -1.87627031810712      1.40397781546205      0.00164258444070
  C   -0.58501890116521      0.78227365131262     -0.00186024879238
  C   -0.44317123357988     -0.57328785688903     -0.00759771616518
  C   -1.58075185830366     -1.42999061183837     -0.01031717542382
  H   0.28963534509757      1.41981665229050      0.00008749917486
  H   0.54538099020016     -1.01458496710669     -0.01016210465202
  O   -4.23433934938021      1.15600521313688      0.00254470706138
  C   -2.01402557315039      2.80204144984002      0.00741849321552
  H   -3.76606511163995     -1.43977988428891     -0.00859127165143
  C   -1.44452058409247     -2.82574500000972     -0.01623442707566
  N   -2.08569037536217      3.95978166495613      0.01210970462641
  N   -1.33950725983168     -3.98338852931395     -0.02121097199483
  H   -4.90897777738079      0.47100919585353      0.00019090173385
