16
Coordinates from ORCA-job 118optt
  C   -3.01858967547600      0.43242991851011     -0.00967341796225
  C   -2.84887232267351     -0.91956993449932     -0.04321050277502
  C   -1.90963211502510      1.33422217625769      0.03711399392599
  C   -0.60178068931640      0.75760798975369      0.04678042501461
  C   -0.43347970442585     -0.59385713444366      0.01305603915296
  C   -1.54287341596622     -1.49176537494340     -0.03289782372892
  H   0.25749944040384      1.41407352716608      0.08085981284902
  H   0.56375886994692     -1.01431510489780      0.02090622181559
  O   -4.31492446892058      0.90139727250210     -0.02255346233954
  C   -2.16790827470525      2.70626556980548      0.07062178189094
  O   -3.93229165901795     -1.75337768071186     -0.08712598954609
  C   -1.35129735912724     -2.88280856454770     -0.06505381569670
  N   -2.47253045734878      3.83124614102032      0.09650770313718
  N   -1.15225221527276     -4.02547030547941     -0.08990449504429
  H   -4.29383349146252      1.86608511198039      0.00518689455364
  H   -4.71752246161253     -1.19345360747270     -0.08681336524710
