22
Coordinates from ORCA-job 123optt
  C   -2.86684367257912      0.57364469899154     -0.00557481793244
  C   -2.69745477098765     -0.78247828915719     -0.01425058470606
  C   -1.75638595317251      1.47289703067646     -0.01193244907380
  C   -0.44825147117179      0.89808063759837     -0.02755864773251
  C   -0.25440857900740     -0.45470626639412     -0.03627848667732
  C   -1.37924808811600     -1.33928794579640     -0.02973637797847
  O   0.56344981733364      1.81571776237023     -0.03276160106853
  H   0.73783968650598     -0.87927119130346     -0.04787203194023
  O   -4.08456253864234      1.19242345213429      0.00948675339153
  C   -1.94339834148347      2.86508340475202     -0.00307186287844
  H   -3.54266063252791     -1.45364730028002     -0.00950661568349
  C   -1.19241040318462     -2.72784319205697     -0.03840252174377
  N   -2.09825332478750      4.01357987899629      0.00339276057986
  N   -1.03634162797638     -3.88049571702594     -0.04529660941304
  C   -5.22108187531445      0.37473627452025      0.01616649695733
  H   -6.08030265727830      1.04241754329938      0.02764269440881
  H   -5.24614452971098     -0.26728391118096      0.90299286104114
  H   -5.26305023554037     -0.25822932180400     -0.87652234740281
  C   1.87532552780660      1.32683982142363     -0.04867016044753
  H   2.52807366611449      2.19752952948855     -0.05085980008659
  H   2.06665854715061      0.72532845924400     -0.94358740738927
  H   2.08487145656948      0.71622464150407      0.83594075577567
