18
Coordinates from ORCA-job 126optt
  C   -2.95648940527762      0.56412857056661     -0.03152737795526
  C   -2.81965537549974     -0.79837025781828     -0.01255793601867
  C   -1.80456912518769      1.41697302706625     -0.04366904101747
  C   -0.51447732679667      0.80554147027060     -0.01535624526077
  C   -0.37876766710848     -0.54855648934135      0.02527601279854
  C   -1.52150268338317     -1.40470272974034      0.02704500865063
  H   0.36167482588091      1.44101631771957     -0.01841089130647
  H   0.60616712876720     -0.99679091472383      0.04906708514658
  N   -4.25727522848499      1.11579410662241     -0.08799170480535
  C   -1.96897992129907      2.80785131117374     -0.04520035861199
  N   -3.98546014316817     -1.59800073472440      0.01601740227655
  C   -1.40567528060221     -2.80045218412053      0.02891667209304
  N   -2.14753290835412      3.95803994489767     -0.04315469096189
  N   -1.35086743491424     -3.96311885594315      0.02617014969865
  H   -4.88021097939493      0.65535450764809      0.56577679203538
  H   -4.25083688914596      2.11350167047985      0.08238816526859
  H   -4.67303046299969     -1.26856319785744     -0.65200892971422
  H   -3.77703112303131     -2.57393556217543     -0.15295011231585
