18
Coordinates from ORCA-job 128optt
  C   -3.04334428797214      0.56448991324919     -0.08849944809320
  C   -2.89855669857903     -0.79513581092541     -0.05549499475400
  C   -1.89188113935011      1.40234932159558     -0.02804911594586
  C   -0.59699411006635      0.78900752325162      0.05860044279221
  C   -0.45220813931426     -0.57061756707250      0.09161760152877
  C   -1.60366924611686     -1.40847608867405      0.03113871218778
  H   0.27893041433355      1.42338774938513      0.12112115753743
  N   0.81686481322453     -1.16670067703158      0.23880319389641
  N   -4.31242155427381      1.16056154085529     -0.23569361860269
  C   -2.04627796226825      2.79528803418805     -0.02025348165308
  H   -3.77447837109414     -1.42951532963038     -0.11806018524097
  C   -1.44928368722979     -2.80141715762765      0.02349352838034
  N   -2.20954643323759      3.94695405612415     -0.00581900883596
  N   -1.28601360151640     -3.95307553069030      0.00848005475224
  H   -5.04791767895390      0.61639402585720      0.18979509879404
  H   -4.33719036575071      2.11643829589839      0.09429107767233
  H   1.55237540612717     -0.62247180298573     -0.18658271291575
  H   0.84165264203814     -2.12253049576701     -0.09131830150003
