30
Coordinates from ORCA-job 131optt
  C   -2.89901399544073      0.54555863367676     -0.13607114354331
  C   -2.78986407975211     -0.77503832386476      0.21015764410617
  C   -1.71539490049344      1.32843355696253     -0.38095252629504
  C   -0.42846949023991      0.72458214830825     -0.15124819832125
  C   -0.34166139996602     -0.59744705203972      0.19550091616134
  C   -1.51334886953502     -1.39704927681589      0.34035249186140
  N   0.71817146171078      1.53695834561652     -0.34470593023874
  H   0.61952013941280     -1.05969970405178      0.36845320940581
  N   -4.15333858677771      1.18296219509110     -0.31613073712119
  C   -1.80937338599234      2.59064133661961     -0.98782414823165
  H   -3.67190584010326     -1.37134303178857      0.39398300554678
  C   -1.41220598308604     -2.76074692022066      0.66256946375640
  N   -1.88717087444028      3.65545198748106     -1.44525916812148
  N   -1.32823710695994     -3.88620977003345      0.93733937378962
  C   -5.30227178742467      0.31602710444158     -0.40462958843223
  C   -4.40790916622828      2.28795608873301      0.59474136285328
  H   -5.26968585514837      2.85620423333981      0.23912691251253
  H   -3.55422126738242      2.95805664913778      0.63460137477637
  H   -4.62325227389281      1.92289699245846      1.61267831377641
  H   -5.12680347878853     -0.46269131247348     -1.14606923003921
  H   -6.16447275325806      0.90945011347045     -0.71461395359617
  H   -5.55268464072174     -0.16702459939427      0.55515194439480
  C   1.97890185331670      0.84553897082879     -0.45253166004868
  C   0.82271558145487      2.66412022294545      0.56851742290925
  H   -0.12021650513634      3.19976284224802      0.62772931915137
  H   1.58420458431377      3.35543395249958      0.20212798508043
  H   1.10764683835527      2.33096082069054      1.58033368542713
  H   1.90708250783801      0.05144172511393     -1.19489203858371
  H   2.30978565408014      0.40167062286830      0.50177288750267
  H   2.74171362028583      1.55833144815095     -0.77138899043910
