17
Coordinates from ORCA-job 141optt
  C   -3.03524694929674      0.62643925922953     -0.04416443080903
  C   -2.88649675218354     -0.74876281081038     -0.06871271770910
  C   -1.84794027419106      1.45336834584252      0.00299126087868
  C   -0.58634001023063      0.80201694047550      0.04468854660344
  C   -0.45995738989587     -0.55422075412189      0.03041854868657
  C   -1.63721413753605     -1.37655428716176     -0.03483615955188
  H   0.30022735328884      1.42227652460656      0.09191751736908
  H   0.51550531432718     -1.01984149352340      0.05946248213181
  C   -4.36597004211769      1.24023014075609     -0.15390725240782
  C   -1.85580412630417      2.86192102040990      0.07805526366977
  H   -3.75704234233646     -1.38745583044857     -0.17252942103870
  C   -1.54634810136550     -2.78622273598359     -0.08047770000200
  N   -1.74686743731154      4.01145929904680      0.16095399723106
  N   -1.46362561746008     -3.93986967755186     -0.11087571821160
  O   -4.58130917731645      2.35661776630494     -0.54305758646677
  O   -5.43477295519566      0.46577283255156      0.21880859806157
  H   -5.11437735487453     -0.31321453962191      0.68380477156490
