14
Coordinates from ORCA-job 145optt
  C   -3.05532863473313      0.64626338184636     -0.02846634173720
  C   -2.97978752708661     -0.72003293472602     -0.06794263707107
  C   -1.90557560397802      1.46685382399799     -0.00313742419764
  C   -0.60094793261359      0.81848523622701     -0.02039343807227
  C   -0.56126517620727     -0.59322908868510     -0.06115987672086
  C   -1.69651001420395     -1.35782408222399     -0.08473939255081
  C   0.60656369911783      1.53858250265985      0.00234950972586
  C   -2.06101638684154      2.86376613100046      0.03699967974386
  H   -3.88559491274391     -1.31215022663494     -0.08615548777037
  N   -2.22121552823217      4.01248500314157      0.07086072773647
  H   -4.02291633309482      1.13491426748165     -0.01539962661295
  H   0.41266211353990     -1.06913200780701     -0.07375179174430
  H   -1.62192803816199     -2.43712027848559     -0.11604666877926
  N   1.61860027523928      2.10598827220781      0.01932276805055
