17
Coordinates from ORCA-job 146optt
  C   -2.98192665525582      0.59076149846298     -0.03169372945572
  C   -2.86595552432449     -0.77450002307090     -0.07058189588915
  C   -1.82186594012052      1.41363139372215     -0.00547233236163
  C   -0.51252637013127      0.77798590414616     -0.02124373348772
  C   -0.44976047070308     -0.62981377897629     -0.06135799005953
  C   -1.57984246514305     -1.40242125308120     -0.08582428731239
  C   0.68596723139421      1.51562885522331      0.00269153870499
  C   -1.97511954580127      2.80986578984292      0.03427340731757
  H   -3.76422634931186     -1.38054006069382     -0.08975794961881
  N   -2.14009925847495      3.95894770649700      0.06704064489557
  C   -4.33300459053645      1.24825263950720     -0.01581385064062
  H   0.52957189412095     -1.09400162759783     -0.07270437422751
  H   -1.50065395756951     -2.48136091855373     -0.11670579759308
  N   1.68967122059684      2.09660987492147      0.02154249846199
  H   -5.12682227131431      0.50173207015653     -0.03937391360917
  H   -4.44862856582458      1.91732064320996     -0.87185189853416
  H   -4.45271838160085      1.86643128628405      0.87713366340935
