18
Coordinates from ORCA-job 153optt
  C   -3.03323369020915      0.48958033365083      0.00876339179811
  C   -2.88548535085084     -0.91089857286120     -0.08536293888040
  C   -1.95442417225319      1.34534617527365      0.04453381892684
  C   -0.60729737665635      0.84226431953410     -0.01331493856652
  C   -0.46011834085745     -0.57172334484197     -0.10840948502300
  C   -1.53927530376094     -1.40228921720192     -0.14285220878996
  C   0.52052963608482      1.67837121140760      0.01899442282886
  C   -2.20926946641987      2.74807660125789      0.14046696784242
  C   -3.99924756177452     -1.81022422845091     -0.12219122615050
  N   -2.43666722270187      3.87459404775533      0.21841353243089
  H   -4.02493263924791      0.92203426186098      0.05513784988240
  H   0.54216199568972     -0.97941813351662     -0.15363589056817
  H   -1.38267804348957     -2.47335770723419     -0.21569528076010
  N   1.47276554300194      2.33996382472915      0.04264872669735
  C   -5.32314384357243     -1.53146480520271     -0.07518290850366
  H   -3.72225639779827     -2.86052166581151     -0.19826818047107
  H   -5.70424311525888     -0.52102820586862      0.00121155971021
  H   -6.05430464992522     -2.32710489447990     -0.11351721240369
