22
Coordinates from ORCA-job 156optt
  C   -3.36730102409502      0.63847458630704     -0.09489847425401
  C   -3.02317246960148     -0.73275260754272     -0.19228312444003
  C   -2.25081439784174      1.54266186940837      0.03973951763409
  C   -0.93711417810786      1.04349258885480      0.06267068571730
  C   -0.62596746035972     -0.31971244135416     -0.03655751654397
  C   -1.74586004181991     -1.20847123711165     -0.16732762017521
  C   0.14691207620156      1.98104001173815      0.19605629434740
  C   -2.41808339062053      2.94974838133805      0.15634641421906
  H   -3.84150811874656     -1.43904988320818     -0.29341002807930
  N   -2.52206098572880      4.09470113080879      0.25648539857487
  C   -4.75452969898276      0.99203920896891     -0.13931607289456
  C   0.73384806511950     -0.79144285782811     -0.00730032304905
  H   -1.57045212278938     -2.27221954119681     -0.24754583345185
  N   1.03292582864610      2.70486699283167      0.30181667374459
  C   -5.37851007163875      2.19121743351773     -0.07708419949923
  H   -5.40054046309585      0.12204914378591     -0.24321193856341
  H   -4.85983682861609      3.13154242076440      0.02532377939836
  H   -6.45884942056944      2.22618723888014     -0.13168003898543
  C   1.14461359066369     -2.07166702338874     -0.09028690847754
  H   1.49678233909581     -0.02578507150289      0.09331626972921
  H   0.45693152198399     -2.90095008892666     -0.19145716784030
  H   2.19847725090332     -2.31206025514406     -0.05681578711100
