22
Coordinates from ORCA-job 157optt
  C   -3.34537565981822     -0.02227973446566     -0.03143451071052
  C   -3.31671819450841     -1.40623630784066     -0.13862064145970
  C   -2.20189455025381      0.75782512366359      0.11366459043722
  C   -0.91975457274073      0.09444773091539      0.16777694751244
  C   -0.88734113559248     -1.29260610676971      0.05647891627111
  C   -2.02559563147905     -2.07322336405833     -0.09284316755560
  C   0.29018659877325      0.80709493079585      0.35305181500498
  C   -2.32378088822251      2.16756010510458      0.17782758910908
  C   -4.54208539084479     -2.14934669711798     -0.36187465438689
  N   -2.44647826108138      3.31510886027539      0.23088739228297
  H   -4.29784372103082      0.48800337151980     -0.11130768472091
  H   0.07519536040131     -1.78320592421901      0.13849431330633
  C   -1.92199384511233     -3.51956898767766     -0.12896274745851
  N   1.28904061363087      1.36840167321706      0.50141743021984
  C   -5.78801094631171     -1.79347177257561     -0.00771180510252
  H   -4.42591360845981     -3.09609264242112     -0.88420510980377
  H   -5.98862028973529     -0.89625874459640      0.56529486303321
  H   -6.63886564593915     -2.40106552258661     -0.28601234830179
  C   -0.86854808641718     -4.25220449837441     -0.52630531973128
  H   -2.80042437044187     -4.05981756460040      0.21621398656353
  H   0.02472649310646     -3.79823140432521     -0.93807524025475
  H   -0.88166426792223     -5.33117252386283     -0.44762461425448
