32
Coordinates from ORCA-job 161optt
  C   -3.22992877395476      0.73798978892836     -0.17139245419107
  C   -3.18500539792049     -0.59934303023129      0.16997286154340
  C   -2.02326206172958      1.50822678201046     -0.21079167575150
  C   -0.75185717490947      0.87860547208348      0.10684958704823
  C   -0.75662261296313     -0.48315568471408      0.45017860036982
  C   -1.91587221155563     -1.20424960919397      0.48452359412149
  C   0.47167571744482      1.57507366352128      0.08346530549877
  C   -2.04783059658217      2.87278244101330     -0.55493479301149
  C   -4.39400187952078     -1.51218733706169      0.24299634280585
  N   -2.06791943897454      3.99884532579800     -0.83704037529000
  C   -4.51854522272185      1.47516613065834     -0.52043613550335
  H   0.18864348974309     -0.95635175217517      0.68942395447943
  H   -1.87656883862607     -2.25232785311616      0.75402858224681
  N   1.49703851990407      2.11626337201985      0.07575185374053
  C   -5.49650333919104      1.58098042077489      0.65521749263345
  H   -5.91358852096932      0.62103711637616      0.95887462243259
  H   -6.32885712345736      2.23861544930586      0.39051080350983
  H   -4.98771215003532      2.01028239234971      1.51969055481062
  C   -5.17707016176570      0.97088227510512     -1.80954970356846
  H   -4.22952288754926      2.50283641070406     -0.73739971138107
  H   -6.00875865925150      1.62523906705082     -2.08433784873267
  H   -5.56446837753614     -0.04462900076167     -1.72893865253593
  H   -4.45114557469326      0.98583875421131     -2.62395803059096
  C   -4.61007715727933     -2.05175173810671      1.66137342357969
  H   -3.75396098697087     -2.64437829811173      1.98897011342101
  H   -5.49843532095599     -2.68790098089131      1.70567603680881
  H   -4.73337707946872     -1.22985501895835      2.36875680567394
  C   -4.29060201078240     -2.66778659396347     -0.75877624969387
  H   -5.28533114162125     -0.95077564733591     -0.01785889688596
  H   -3.42218678324632     -3.29393410452070     -0.54654513780573
  H   -4.18148099230909     -2.28425696233005     -1.77469677694525
  H   -5.18141525055039     -3.30066125043869     -0.71744409283692
