34
Coordinates from ORCA-job 168optt
  C   -5.21978063811068      1.52031260198258      0.20630102573081
  C   -6.16714859091334      0.60450737549367     -0.19127151710120
  C   -3.84265708873221      1.18014731683426      0.16466891947525
  C   -3.45129373871955     -0.12610230281977     -0.36146705778860
  C   -4.46432336328759     -1.05215511583162     -0.72555925159799
  C   -5.78918943821800     -0.69080605741575     -0.63940345009719
  C   -2.08932633326570     -0.42866678267035     -0.55132024136749
  C   -2.86487188154251      2.05603556219060      0.67484788167201
  C   -4.13149161015300     -2.42390769783583     -1.18247240551939
  N   -2.06002510095758      2.78351690975672      1.08281763954165
  C   -5.67263903797032      2.85828740857458      0.66071325653684
  N   -0.96738716568067     -0.68259699259605     -0.69452507425006
  C   -5.06441703568004      4.02901918630880      0.20338944543461
  C   -6.74905640174154      2.97533583614029      1.54263467318095
  C   -5.52770633147369      5.27294784111924      0.60423281757513
  C   -6.60367216452765      5.37583824942888      1.47692816062267
  C   -7.21191139119751      4.21953797701987      1.94636181824790
  H   -8.04304895841445      4.28506599212610      2.63801604267152
  H   -7.21124200185669      2.07316908318722      1.92378914345883
  H   -5.04154845652387      6.16744756692469      0.23524549176205
  H   -6.95874164548267      6.34823597117245      1.79488501588831
  H   -4.22220180964466      3.95746132491800     -0.47186384500023
  C   -3.19362416777753     -3.20877908972440     -0.50838213474511
  C   -4.78109102425618     -2.97681244722244     -2.28834987584221
  C   -4.51483901530193     -4.27474285406827     -2.70025300858766
  C   -2.92831959286067     -4.50660157978485     -0.91797149976442
  C   -3.58723522462627     -5.04754473297079     -2.01479383139232
  H   -2.67262845458604     -2.79345057619979      0.34388720469602
  H   -2.19881303288468     -5.09748166348794     -0.37821969596912
  H   -3.37311616887649     -6.05895035243458     -2.33718465773105
  H   -5.49067226871752     -2.36793366318270     -2.83479181352265
  H   -5.02567247446008     -4.67942367096740     -3.56557103694896
  H   -7.21238918858483      0.88538439260242     -0.17800343138718
  H   -6.55215920297358     -1.41472501656784     -0.89539470788171
