34
Coordinates from ORCA-job 169optt
  C   -2.98219360929935      2.23576212045894      0.14268649992194
  C   -3.96418809075580      1.27102755246919     -0.02309326565471
  C   -1.62580440780550      1.94372888367509      0.28340229087496
  C   -1.22212586556731      0.55851431571064      0.26555479234035
  C   -2.20424347215870     -0.41057229561489      0.06408941420998
  C   -3.54872054096208     -0.11976472963981     -0.11064285050326
  C   0.12937274205989      0.16202572569785      0.40262030721443
  C   -0.70211491565889      2.99787153565742      0.47817078769931
  C   -4.44321208268464     -1.20796722741036     -0.52519636254571
  N   0.03575275353972      3.87326051086337      0.63495389609661
  C   -5.36906099248676      1.69194034142298      0.05018094010591
  H   -1.87718058627072     -1.43950629249750     -0.02675710860470
  N   1.22626782911127     -0.18391621654345      0.51410827423571
  C   -5.80062538445056      2.89591599738156     -0.52935967956574
  C   -6.33248239075218      0.92925116943685      0.73096018724624
  C   -7.11448636914395      3.32216889984101     -0.42192075898371
  C   -8.05172555998418      2.55631349114203      0.26275079656265
  C   -7.64562031382609      1.35630529728849      0.83665634838838
  H   -8.35984819747601      0.74659298456484      1.37700496395297
  H   -6.03504377752527     -0.00339844670236      1.19251897135948
  H   -7.41210866992111      4.25411041169118     -0.88768031598613
  H   -9.08013697526643      2.88462513423583      0.34173624574861
  H   -5.09162879632621      3.49090828018144     -1.09211234155837
  C   -4.31031925799726     -2.50175640892239      0.00427985105145
  C   -5.44167624293126     -1.01395438673049     -1.49414809774011
  C   -6.24587508414438     -2.05856147341412     -1.91833007720563
  C   -5.11449023740023     -3.54599550048799     -0.42233442575146
  C   -6.09152921705800     -3.33543959952574     -1.38927763140527
  H   -3.57453436141514     -2.67800581777061      0.77948180874112
  H   -4.98542260072928     -4.52991611377569      0.01274939270855
  H   -6.72490682694122     -4.14885931140115     -1.71918672572884
  H   -5.57182374424096     -0.03028734055594     -1.92633703541747
  H   -6.99951675712429     -1.87452491064996     -2.67466947331113
  H   -3.28088799640705      3.27306341992383      0.23675038150363
