14
Coordinates from ORCA-job 170optt
  C   -3.18422268697187      2.02198946410059      0.50619223858840
  C   -4.01515040903965      1.02780773035932      0.08026819939403
  C   -1.78353836962328      1.93279544195708      0.53988357782427
  C   -1.19831757128665      0.67916090857589      0.08019537044007
  C   -2.06525103007873     -0.34736823532796     -0.36051594539683
  C   -3.42464623461583     -0.19821842967225     -0.36757979238445
  C   0.19061361066743      0.46406433069562      0.06325074559125
  C   -1.01994684279994      3.01883928387976      1.00155928570857
  N   -0.38818643203274      3.91182186137544      1.38227434404876
  H   -1.61907811463901     -1.27431277609960     -0.69960018877884
  N   1.33116062204799      0.25448358973741      0.03586346773839
  F   -3.73263722146068      3.18066059345888      0.92823613721282
  H   -5.08356468926909      1.18768691831839      0.09028093450985
  H   -4.05756463089794     -1.00511068135860     -0.71201837449631
