14
Coordinates from ORCA-job 176optt
  C   -3.19224477841664      2.00692393512773      0.50282717480564
  C   -4.00336980112967      0.99741804002239      0.06956490235780
  C   -1.78271425920294      1.92063905592924      0.53544744974581
  C   -1.19414387711965      0.66649539199927      0.07508143544447
  C   -2.04786323150152     -0.36319251456393     -0.36839128857971
  C   -3.40970781424014     -0.22458553323809     -0.38028301020795
  C   0.19728609650844      0.45478399220527      0.06247020042873
  C   -0.98938984112648      2.98841757932344      0.98791372052578
  N   -0.32081001479694      3.85893834680556      1.35882150215463
  H   -1.59236836114490     -1.28629509687227     -0.70619872807563
  N   1.33721540532790      0.24592435841673      0.03756321006598
  Cl  -3.93808596423067      3.48718780647729      1.04788636563087
  H   -5.07487113297229      1.13444901850784      0.07243288293995
  H   -4.03928242595447     -1.03280438014046     -0.72687581723638
