14
Coordinates from ORCA-job 179optt
  C   -3.15791411585532      2.04483041675355      0.51711434450426
  C   -3.98207280087794      1.03946601673836      0.08672786642965
  C   -1.75529265077809      1.95043622981903      0.54672240956549
  C   -1.16440386817260      0.69842746216718      0.08721992991686
  C   -2.01809882292461     -0.33662234176640     -0.35499190300199
  C   -3.36935451847616     -0.17240124119204     -0.35473652604675
  C   0.22551993156119      0.48790443418152      0.07318933531921
  C   -0.95790541489539      3.01796900431353      1.00118107800615
  N   -0.28873476195869      3.88548818229275      1.37271787185368
  H   -1.58319780282307     -1.26679911605920     -0.69506652596016
  N   1.36622360641812      0.28372291347579      0.04902425417175
  Cl  -3.89997715852311      3.52310462112943      1.05886011480017
  H   -5.05368490764944      1.15925292867831      0.08172451979434
  Cl  -4.41143671504487     -1.46048951053179     -0.90138676935266
