16
Coordinates from ORCA-job 186optt
  C   -3.20739902618020      2.07472411351401      0.52923678856251
  C   -4.00758210264770      1.04816484542192      0.09225690880176
  C   -1.80471307943499      1.96392678302373      0.55399257490696
  C   -1.21026325399776      0.71745193196140      0.09945541608781
  C   -2.06523838214636     -0.32477829058589     -0.34634897908350
  C   -3.42401588822733     -0.17822305169419     -0.35529840409517
  C   0.16714563968105      0.47027662891726      0.07066754538916
  C   -1.01718888532637      3.03731163528806      1.00812398064626
  N   -0.35480754817019      3.91136707602956      1.38013158776167
  O   -1.52841139341664     -1.50601485095883     -0.77874091136019
  N   1.28235617888860      0.14751818425301     -0.00064590455231
  O   -3.73445796677913      3.26412957774526      0.96521486618164
  H   -5.08453926528969      1.17268977638331      0.08844390990588
  H   -4.03840459532286     -0.99677690453233     -0.70300620002647
  H   -4.69088019958335      3.20438641157560      0.89408451527523
  H   -0.56606023204701     -1.45197386634194     -0.70942769440125
