16
Coordinates from ORCA-job 187optt
  C   -3.13689743296917      2.09286829309169      0.51988844853555
  C   -3.93509849553913      1.08380547652617      0.09018875681028
  C   -1.72028916456789      1.96557302548431      0.54815862904865
  C   -1.14442050499248      0.70573945097031      0.10034299954845
  C   -2.02414405255697     -0.31933750135717     -0.34168378654034
  C   -3.37260105959780     -0.15482217250909     -0.35475933947476
  C   0.23725199293673      0.46545771812495      0.08823846478030
  C   -0.95667351055693      3.04928041391434      1.00082076946203
  N   -0.35818498474393      3.96967066271140      1.38302353317630
  H   -1.61039757332530     -1.26119624858589     -0.67949652385454
  N   1.37713163070171      0.24191710445676      0.06672074077599
  H   -3.57969051446098      3.02647004937575      0.85315065514958
  O   -5.32215520996891      1.14183677066218      0.03799199076509
  O   -4.21878151300854     -1.15214835176397     -0.78745308760173
  H   -5.60318534875434      2.00544636259763      0.35046490906224
  H   -5.11723425859603     -0.81469105369939     -0.70432715964310
