18
Coordinates from ORCA-job 188optt
  C   -3.08056690244735      1.96849657243434      0.50222538460614
  C   -3.89933322124056      0.95413877099226      0.06376018527680
  C   -1.66931512390679      1.84554300291405      0.51772218480582
  C   -1.08754990263545      0.59699994351214      0.05180998936585
  C   -1.95214432893444     -0.42836821000680     -0.39230030513317
  C   -3.30901666799316     -0.26992739608069     -0.39229646106156
  C   0.30135509468681      0.37740642831158      0.02992071262259
  C   -0.88397841796310      2.91825005182227      0.97478617842729
  N   -0.22895584671340      3.79733299104908      1.35059623084558
  H   -1.50952450681730     -1.35490967701719     -0.73703911072803
  N   1.44056318076082      0.16018451268560     -0.00321941690330
  O   -3.54776220204517      3.16784349915024      0.95565237332269
  H   -4.97255213529552      1.06590078915884      0.05882751246962
  H   -3.94884156004747     -1.07138594557410     -0.73812643617096
  C   -4.93308290793897      3.36913052388429      0.96110606572692
  H   -5.09490632219135      4.37328112690937      1.34837842197343
  H   -5.44080238767268      2.64465405938500      1.60637447650201
  H   -5.35214584160487      3.29683895646968     -0.04798798594772
