22
Coordinates from ORCA-job 191optt
  C   -3.33887314344615      1.98779210632993      0.94697138937706
  C   -4.24667404091455      1.13134407126349      0.37570674232779
  C   -1.95157391845938      1.75822633469034      0.91220005449906
  C   -1.47167123489622      0.57112245718794      0.22780579717176
  C   -2.43352892077299     -0.31733006370774     -0.35106053382500
  C   -3.76674814985895     -0.04576773512120     -0.27396755130486
  C   -0.11209264587810      0.25765407172181      0.12332706699088
  C   -1.08463535980634      2.65923231725195      1.56093017473889
  N   -0.38689531334438      3.42128472227745      2.08358365309957
  H   -2.06319518891510     -1.20344054844902     -0.84547395120282
  N   1.00749127766282     -0.03817936197756      0.01561862863846
  O   -3.82768551457041      3.10001209126835      1.59612942781135
  H   -5.30509147425829      1.33873488401940      0.42612191213106
  O   -4.75788898424469     -0.83915447157683     -0.80107790073347
  C   -3.62790517507768      4.31164597944117      0.89242066571137
  H   -4.11693169294545      5.09316933901940      1.47248141589011
  H   -4.08714263379948      4.25187974259504     -0.09995242337968
  H   -2.56702951963987      4.54896142936254      0.79211935782381
  C   -4.34813672470217     -2.00567658263440     -1.45825661568740
  H   -5.25206719814344     -2.50272415283855     -1.80607834632665
  H   -3.80250802942877     -2.67354576048221     -0.78293482467617
  H   -3.70591641456019     -1.77646086964140     -2.31555413907513
