22
Coordinates from ORCA-job 193optt
  C   -3.56143877078987      1.79659867939633      0.68161597738950
  C   -4.47202957870148      0.83891313441754      0.33820144371093
  C   -2.17881535229939      1.64020984295355      0.46598977444467
  C   -1.71501459154473      0.41699274056816     -0.16255206379621
  C   -2.68852636247677     -0.57390865769621     -0.50223694013535
  C   -4.01693969000954     -0.38609993171472     -0.26522394970058
  C   -0.36831134522423      0.15984252867285     -0.44394298605062
  C   -1.30865491165261      2.67419021676996      0.86074331599729
  N   -0.61405449948619      3.54070570932716      1.19347533448980
  H   -2.33046986808066     -1.48793377556952     -0.95468975013510
  N   0.73914380212763     -0.09140106402029     -0.69423902520725
  H   -3.92485714056269      2.70464766274392      1.14800971592454
  O   -5.81671047821404      1.01322339346680      0.60182200781637
  O   -5.00882731534069     -1.29136537216039     -0.55328691694546
  C   -6.57174651556750      1.34751101270717     -0.54399274868412
  H   -6.23324233086128      2.30156766267251     -0.96203712610787
  H   -7.61208707467310      1.43699252086024     -0.22953664276203
  H   -6.48916309241595      0.57082107467552     -1.30857440996527
  C   -4.60016327802420     -2.50869754037176     -1.11182977182656
  H   -5.50062402553745     -3.10211917545480     -1.25969986541431
  H   -3.91666843517288     -3.04290371398588     -0.44321034134541
  H   -4.09961914549227     -2.35925694825814     -2.07489503169695
