17
Coordinates from ORCA-job 194optt
  C   -3.25967043349890      1.96578893506224      0.50759965300679
  C   -3.96743174979639      0.82976754035834      0.05086042574715
  C   -1.80564578511747      1.87324570007645      0.52723360738039
  C   -1.20864939907751      0.67522957094037      0.06355677108221
  C   -1.94186029374409     -0.40092321213686     -0.38989106525252
  C   -3.35897792399075     -0.31641355507784     -0.38541657845364
  C   0.22352496345154      0.53477095302860      0.04778985445560
  C   -0.94907458367575      2.92450951084614      0.93058701132463
  N   -0.16480796598960      3.72352424503914      1.21686353581321
  H   -1.43066484861141     -1.29073730325828     -0.72785597160902
  N   1.35882465444337      0.36327800346609      0.00999562330576
  C   -3.92893020479346      3.14473939166187      0.99965100647842
  H   -5.05186916575380      0.83111796908088      0.08635444294259
  H   -3.95444769253298     -1.16071345864950     -0.70567207677522
  O   -3.41430974383298      4.04146519908924      1.63153777218044
  O   -5.28568078360308      3.25793685615561      0.73135870635380
  H   -5.52363904387663      2.64300365431747      0.03295728201942
