20
Coordinates from ORCA-job 197optt
  C   -3.49521523032075      1.81853462214837      0.44609065387617
  C   -4.24158097542436      0.76415503993404     -0.00541788119642
  C   -2.06135380499473      1.74780862876103      0.45609491232879
  C   -1.47776473196537      0.52737130345011     -0.02592488876425
  C   -2.24979391784013     -0.51717709024159     -0.47381546790724
  C   -3.66165744043215     -0.44260120434563     -0.48120338728324
  C   -0.05612028297296      0.36007558894155     -0.06168594078003
  C   -1.22825361058111      2.82001416914279      0.83345008877313
  N   -0.49125497447946      3.66618763377999      1.11009975920397
  H   -1.71641827007510     -1.39287362175481     -0.82597677847761
  N   1.07931483660549      0.18309543307245     -0.10548038390506
  C   -4.18140573869404      3.01622584388105      1.00819758234964
  H   -5.32434294287119      0.78769993569452      0.03463483861350
  C   -4.55803731207821     -1.48928049970679     -0.93030072766563
  O   -3.74054027692921      3.70485159166566      1.88081255226778
  O   -5.39605141819587      3.30879484037370      0.47455329211753
  H   -5.55806762973169      2.73623340309485     -0.28388187044532
  O   -5.76550048825592     -1.38911171049307     -0.97845094928201
  O   -4.00288395036153     -2.67513192199471     -1.33267200697990
  H   -3.05045184040162     -2.65614198540353     -1.20531339684381
