20
Coordinates from ORCA-job 199optt
  C   -3.44741179762900      1.72092549673124      0.47876510699904
  C   -4.22610498447580      0.68931326864167     -0.08985689421952
  C   -2.07701546765312      1.70979201451735      0.50207682905955
  C   -1.37931090016660      0.59378586173570     -0.07662890516241
  C   -2.13213004144904     -0.46018524100163     -0.57167177905231
  C   -3.52372722091738     -0.49525752125443     -0.57431047061453
  C   0.03854089534217      0.53395361162039     -0.10991865910595
  C   -1.37516671058005      2.81101005681796      1.07708930459050
  N   -0.81812530750683      3.70404956719370      1.54267084234128
  H   -1.62084244715212     -1.33586074983991     -0.94689768938751
  N   1.18972424285817      0.47798387252562     -0.14198478208845
  H   -3.97608919785286      2.57614633940042      0.87705786978619
  C   -5.61798385938066      1.05092478290785     -0.18548464582680
  C   -4.05084537822295     -1.84442793546486     -0.93558638968818
  O   -6.17158595771051      2.00077819714495      0.34230504905048
  O   -6.39101617986611      0.24546130390082     -1.00391918199444
  H   -7.28177837862906      0.61483450603711     -0.94214341994853
  O   -3.33577129657909     -2.72831970233837     -1.35029537573524
  O   -5.34656098517778     -2.12499058646855     -0.72252590611149
  H   -5.87414902725127     -1.31019714280706     -0.67015090289167
