20
Coordinates from ORCA-job 200optt
  C   -3.45793124980597      1.35541606397778      1.07759219983692
  C   -3.77021427258907      0.02050260664804      1.19254316948095
  C   -2.25418998401205      1.76379210350182      0.38887427234240
  C   -1.51713148273144      0.72095758638258     -0.29793775213228
  C   -1.89419871191156     -0.60393633179895     -0.17938760291316
  C   -2.99739991220926     -0.98357326111573      0.58672708112986
  C   -0.38697329296162      1.02822943313071     -1.10668745447547
  C   -1.76191218525243      3.07070517297474      0.45461055184273
  N   -1.37434977151976      4.16546683842353      0.49826159053099
  H   -1.31205715047477     -1.35008528403509     -0.70662313472841
  N   0.53298021135282      1.24869241524291     -1.76663701636347
  C   -4.41652157305080      2.30237005231333      1.69364932221811
  H   -4.66255268971126     -0.23632672431461      1.75055020404967
  H   -3.27923376710240     -2.02327417654744      0.66931503439974
  O   -4.93974206343889      2.11412439152150      2.76517461470836
  O   -4.73501028436472      3.43895734682063      1.02745472588231
  C   -4.62697594662141      3.52541653655702     -0.38763980620059
  H   -5.52145221029122      4.04621118616651     -0.72910043676135
  H   -4.58773026551077      2.53629064606123     -0.84385816701295
  H   -3.74002339779323      4.09320339808935     -0.66315139583436
