26
Coordinates from ORCA-job 205optt
  C   -3.38305112443934      0.93165384712815     -0.41314380064906
  C   -3.89957305483005     -0.33035936445283     -0.67201917575911
  C   -2.05952207136442      1.13354074690436     -0.04504720766626
  C   -1.19493724029268     -0.01738295723953      0.09172784377496
  C   -1.69474873036930     -1.27010558731823     -0.22920577326412
  C   -3.00238703203453     -1.46362857729585     -0.65934180562951
  C   0.15797197215689      0.11238885370825      0.50260289762356
  C   -1.60065029049590      2.44762733600241      0.23048123795656
  N   -1.24213193951524      3.52133993780776      0.45332811483956
  H   -1.03696456498841     -2.12952247160881     -0.19592278941075
  N   1.25905224213448      0.20288608048838      0.83389497986085
  H   -4.05809376364718      1.77741903127040     -0.45219820404297
  C   -5.35426563112414     -0.42256401581698     -0.76594222500523
  O   -6.10252657295346      0.45133626171805     -1.15260990079428
  O   -5.83759550117105     -1.59924807075318     -0.29331375695785
  C   -7.22981320438168     -1.78213438825625     -0.45553382670989
  C   -3.30398174809067     -2.77138443579861     -1.22970185612897
  O   -2.73985974482813     -3.81400534402982     -0.96493645794012
  O   -4.26874189635628     -2.72206023024956     -2.18443654181954
  C   -4.65818265359853     -3.97653549211805     -2.70635635014337
  H   -7.79127079257785     -1.01923393494590      0.08471417098176
  H   -7.45307809019823     -2.76933090080230     -0.05713621526368
  H   -7.50372141392508     -1.72896618686982     -1.51070425523609
  H   -5.44170761470951     -3.77123615959949     -3.43246554951662
  H   -5.03759932145316     -4.62268692037124     -1.91287001116516
  H   -3.81824021694635     -4.47914705750126     -3.18700354193464
