18
Coordinates from ORCA-job 209optt
  C   -3.18105442782266      1.91011620473462      0.53044270144887
  C   -3.94468976834258      0.87824082481750      0.01092004716101
  C   -1.77359494416994      1.83120944767098      0.55889272205322
  C   -1.12122761871206      0.63602335531164      0.05581369904723
  C   -1.94332193433982     -0.40952138093028     -0.46109609588586
  C   -3.30258629954595     -0.29111689500665     -0.48973769141657
  C   0.26863727325246      0.47949855954253      0.07023422711526
  C   -1.06667308076893      2.94482141523298      1.04815915966815
  N   -0.56014756569361      3.90537197481604      1.45558199583527
  H   -1.46692479472082     -1.30948687171050     -0.83261874603322
  N   1.42075965152714      0.31619406032909      0.06891954678286
  N   -3.81446127562243      3.03493123910694      1.06657711294343
  H   -5.02469635220335      0.96099023194597     -0.01839446461657
  N   -4.12884871062603     -1.29948736737187     -1.05091131611019
  H   -4.69296944671907      3.25045307659263      0.62210218396888
  H   -3.21668861100275      3.84559764770005      1.15018072431108
  H   -4.96254436538044     -1.44463438097965     -0.49488674764226
  H   -3.63507772910911     -2.17718114180204     -1.13990905863061
