18
Coordinates from ORCA-job 210optt
  C   -3.24867906913531      1.90590454495940      0.55747368502061
  C   -3.99341354269966      0.85712833278569      0.07117626327679
  C   -1.83268310750675      1.84268301476887      0.53774026029099
  C   -1.18578803361543      0.64241427472981      0.03313095595436
  C   -1.98670430657955     -0.40891427443016     -0.47906963670393
  C   -3.35766121133131     -0.30352540343279     -0.46225072595328
  C   0.20647121406902      0.47211807085584      0.05138043669249
  C   -1.10907423855626      2.95667459563369      0.98840103869903
  N   -0.57645014729761      3.91807684786219      1.36513977991744
  N   -1.35809850638150     -1.53500685423886     -1.04442113659004
  N   1.34845546322580      0.25837050000766      0.04588206557726
  N   -3.87590935465956      3.03309394570755      1.12219989737988
  H   -5.07484543350505      0.91354267209817      0.10961612059915
  H   -3.95543407401540     -1.10830751522331     -0.87350645517214
  H   -4.75102014843988      3.25427987382823      0.67166633862586
  H   -3.27306476039909      3.84437626161112      1.16164929554713
  H   -0.40126167533996     -1.65157311833839     -0.73780678836447
  H   -1.88787906783245     -2.38253576918471     -0.90746139479713
