22
Coordinates from ORCA-job 212optt
  C   -3.07532278801574      1.75912410116085      0.55393702345525
  C   -3.82033480012274      0.86772344388858     -0.18366137843931
  C   -1.66947992603402      1.56297895001898      0.71687771125517
  C   -1.03930740434136      0.45387325110962      0.01642469467732
  C   -1.84856823062097     -0.44126150891775     -0.71107263144834
  C   -3.20168887663061     -0.26350849301154     -0.80359793916265
  C   0.34932072249836      0.22641173478372      0.06833161655670
  C   -0.93862633794844      2.36906466688271      1.60338416630627
  N   -0.33748984552049      3.05457252473685      2.32179875205697
  H   -1.36992960717660     -1.28163371533153     -1.19948355976652
  N   1.48813073891398      0.00886806093222      0.08976919569536
  N   -3.66725716201264      2.87448063627028      1.19941572191220
  H   -4.88123424958109      1.02384249208205     -0.31438565839636
  H   -3.80585863772604     -0.96332934531353     -1.36621899583145
  C   -5.10309638817000      2.85644990929490      1.32753235707375
  C   -3.20770152971669      4.17333585629560      0.73292347434304
  H   -2.12596382910432      4.19464974233805      0.64788201827368
  H   -3.50732736643913      4.93992265915369      1.45035190848775
  H   -3.64845754656249      4.41905474906171     -0.24744420101077
  H   -5.43003000645004      1.90512672813732      1.74561746726296
  H   -5.62424656141092      3.01408387901089      0.36777279214527
  H   -5.40198036782780      3.65956967741622      2.00405546455368
