30
Coordinates from ORCA-job 215optt
  C   -3.26852857580360      1.99107504914753      0.12037038954437
  C   -4.08376415782273      0.96568729324819     -0.30460400834912
  C   -1.87192180370177      1.78482174727231      0.28429484592855
  C   -1.33434552340499      0.46094531049770      0.03315019369373
  C   -2.21221582352732     -0.56827329092358     -0.40129201795220
  C   -3.54685179993943     -0.33737017203124     -0.58239462523194
  C   0.02813038980430      0.16037079963052      0.18563605766613
  C   -1.02630337727598      2.87092663140990      0.57123300816321
  N   -0.34146128746227      3.76979167953345      0.83013145288732
  H   -1.78197979039647     -1.54160674242476     -0.59264391844955
  N   1.14711375569837     -0.12892130797935      0.30073365336649
  N   -3.78513067596959      3.28881259341830      0.36910827340636
  H   -5.13735131755202      1.13219847894996     -0.46873413252360
  N   -4.46227288497281     -1.32827364562971     -1.04988808190634
  C   -3.67668366454428      3.73645161160672      1.74884121884499
  C   -5.09724394186031      3.57194478812783     -0.15824916864641
  H   -2.68261863116382      3.54831297318653      2.14161544754168
  H   -4.41683331679182      3.22762305051490      2.38830795564245
  H   -3.86127974267710      4.81162045872654      1.79269338288450
  H   -5.14625415992326      3.29693604948929     -1.21100629712413
  H   -5.28429933521681      4.64347789212645     -0.06602009712050
  H   -5.90230779840870      3.04275613899171      0.37967243470424
  C   -5.50471033556610     -1.65198790161552     -0.09023653024726
  H   -5.10498861949856     -2.22138266158360      0.76557865418582
  H   -6.27701865665538     -2.25242949183101     -0.57652786593821
  H   -5.96095470286929     -0.74314035187342      0.29508191257507
  C   -3.86132375888906     -2.53401988644139     -1.56705112550434
  H   -4.64063566463009     -3.15431115464443     -2.01414733402543
  H   -3.35948012969658     -3.13118612868386     -0.78688042860381
  H   -3.12679466928230     -2.28409981021602     -2.33205324941209
