30
Coordinates from ORCA-job 217optt
  C   -4.01432977776950      1.56014342326989      0.09085289498676
  C   -4.71146786260994      0.45664821469884     -0.32500109474069
  C   -2.61013936340947      1.57412463973671      0.26489036204055
  C   -1.89239043709711      0.33325519825562      0.06124941849427
  C   -2.62144172557975     -0.77867465954054     -0.42297146612747
  C   -3.97390965412883     -0.75684140221202     -0.63939338307342
  C   -0.51191368158643      0.19604733239420      0.28331874917610
  C   -1.98648311457661      2.76877856661461      0.66208747398202
  N   -1.50273497815436      3.76880926438857      0.99851865428977
  H   -2.05786492942663     -1.67767310241654     -0.63670807822987
  N   0.62786999438301      0.05180124226702      0.44846528719632
  H   -4.54394824638336      2.47713410606630      0.31477344103033
  N   -6.13427043961268      0.44210071680132     -0.45393422985301
  N   -4.69127135569335     -1.87107597037549     -1.17349755710747
  C   -6.76601200431944      1.73806103014154     -0.52327506253613
  H   -6.72281805699742      2.29151862848607      0.42989179716332
  H   -7.81911151867073      1.60380015745134     -0.77954838617260
  H   -6.28821676650689      2.34535818341996     -1.29212803808151
  C   -6.78532442584802     -0.39102060037991      0.54692370704512
  H   -6.72163962487524      0.06448751468462      1.54889633219708
  H   -6.31185508025559     -1.36906726811318      0.56783680750013
  H   -7.84019227405730     -0.51511203111152      0.28758298088489
  C   -5.17716102675189     -1.63608191285906     -2.52566233342226
  H   -5.87199501396384     -2.43193497394803     -2.80714438187750
  H   -4.34735543967619     -1.62186781421594     -3.25146979399818
  H   -5.70048374887998     -0.68430585976108     -2.56236924087246
  C   -4.01509770367211     -3.14360078459063     -1.09253882837505
  H   -4.71379742086458     -3.93281006689670     -1.37850118547073
  H   -3.67637964681313     -3.32211916124194     -0.07197844227493
  H   -3.14197467620241     -3.21247261101403     -1.76309640377330
