22
Coordinates from ORCA-job 220optt
  C   -3.54199407830358      1.99159908210133      0.97640306356558
  C   -4.33849685781274      0.98808414730782      0.47222295332456
  C   -2.12942044063560      2.02851858844800      0.70034199262021
  C   -1.58022621353177      0.98247745385586     -0.14341340716979
  C   -2.41842081315067     -0.02258847105085     -0.60750667049440
  C   -3.76948041418809     -0.05702609473148     -0.31707774531050
  C   -0.20931240125914      0.93972596159772     -0.49581228433237
  C   -1.31301986061611      3.03361793162177      1.23084634377979
  N   -0.64184891984063      3.88592084700557      1.64800524420186
  H   -1.98672853704709     -0.80557175352665     -1.21983536779492
  N   0.90342315218060      0.87595044303976     -0.80184637672130
  S   -4.25551270559936      3.22840027729942      2.01670487846431
  S   -6.07910940950355      1.03053736286247      0.82369706872701
  H   -4.37059235106451     -0.86499826556065     -0.69981209634951
  C   -4.04267627051739      4.70173583136715      0.98277544670028
  H   -4.53497102361703      5.51979265194307      1.50764040123469
  H   -4.52280262957667      4.54770497704869      0.01794375516367
  H   -2.98741235293956      4.93478501703765      0.85707758049325
  C   -6.70740071347289     -0.34480725626794     -0.15741001618301
  H   -6.47824871388878     -0.22215865835473     -1.21487273052924
  H   -7.78814206019471     -0.32028354067427     -0.02329431256592
  H   -6.33175638542058     -1.30416653236978      0.19492227917574
