22
Coordinates from ORCA-job 222optt
  C   -3.04489216213504      2.02883639184999      0.48094570482421
  C   -3.80870937375080      0.98582579346160      0.02126227707028
  C   -1.62956881848351      1.92964327976672      0.51143586916336
  C   -1.00174005233827      0.70112908248299      0.04771854937239
  C   -1.82586156425077     -0.35368356491681     -0.42328133823769
  C   -3.19134832052642     -0.22017580540459     -0.43785606053577
  C   0.39672867956715      0.55350182383292      0.06278565461232
  C   -0.85441895582046      3.00429156231030      0.98257888356647
  N   -0.23139585271113      3.89993794159574      1.37405774180267
  S   -0.98399322609609     -1.80819045480149     -0.97377734830538
  N   1.54728302024072      0.41285885757975      0.06817397578630
  S   -3.72736099930254      3.55226678201618      1.06405368664499
  H   -4.88560665090101      1.04968211636947     -0.00593112638519
  H   -3.82811564249951     -1.01509435052010     -0.79438277083505
  C   -5.49091508470111      3.28371686404422      0.85368119673725
  H   -5.97255349959870      4.19910851381436      1.19386602052394
  H   -5.84254091104118      2.44918721161793      1.45966586702137
  H   -5.74563521837804      3.11406990414544     -0.19208373573578
  C   -2.34586696122803     -2.87191745895720     -1.46343683655967
  H   -3.00165643049772     -3.09144415756348     -0.62143904371793
  H   -1.88888340369861     -3.79741353927434     -1.81023419167692
  H   -2.92297857184884     -2.43259679344961     -2.27655297513620
