30
Coordinates from ORCA-job 227optt
  C   -1.39129177284801      3.32443722396919      0.98428797598464
  C   -2.75699157184369      3.15536543981870      0.98126877307443
  C   -0.50189053428217      2.23546847041444      0.76780261588182
  C   -1.06023972111277      0.91572353587901      0.54133685128586
  C   -2.46498677873943      0.77349255859731      0.54415590791119
  C   -3.28298965858617      1.84695790114376      0.75472297646244
  C   -0.25586312445279     -0.21382029103768      0.32344577464110
  C   0.88207124391634      2.46648737463588      0.77931441688293
  N   2.01222310316787      2.72879061278475      0.80210248875566
  H   -2.88583749780200     -0.21134016592600      0.37447904707305
  N   0.38112035662915     -1.16624428292159      0.13995371514523
  N   -4.68096010010172      1.61389039005791      0.74099926070103
  C   -5.70373405234969      2.47297568642290      0.91412003571154
  O   -5.67271281275496      3.66310773899589      1.12688258820845
  O   -6.88214504351896      1.78249652097518      0.81366126856266
  C   -8.04038799370041      2.57889234530114      0.98597037967853
  H   -8.08958674608028      3.36191911732982      0.22931105928377
  H   -8.04708359815922      3.04636630250816      1.97064898026377
  H   -8.88539266391569      1.90230969468686      0.88403904442606
  O   -2.56724061972642      5.89881074396265      1.51608128167918
  O   -0.50571328320867      6.77868773374200      1.59667037517697
  C   -1.23104045156429      5.81892398274486      1.44670249917149
  N   -0.76215943355047      4.56857664881738      1.19455407204588
  H   -4.15936150282360      7.08131002350239      1.80094864142986
  C   -3.07893923126599      7.19537338793394      1.78076124669374
  H   -2.71273354015941      7.56390491475630      2.73845740516940
  H   -2.78003832901876      7.89285296638976      0.99896309787899
  H   0.24894758160594      4.55372255086537      1.15782788016452
  H   -3.42736607449400      3.97424349702384      1.14235199310934
  H   -4.96083614925957      0.66075737662574      0.57564834754645
