30
Coordinates from ORCA-job 229optt
  C   -0.56344918595764      2.95905682476027      1.44467269351018
  C   -1.88730636134158      3.24079149147537      1.68841213203114
  C   -0.15722296713834      1.84757431691095      0.70956818026334
  C   -1.17375939417858      0.95787977545905      0.17650024891553
  C   -2.54003005272204      1.26476210608453      0.42673562884136
  C   -2.90196920448410      2.36128552983906      1.15526094254183
  C   -0.84886560781415     -0.18059327056050     -0.57699807153905
  C   1.22616327224828      1.63220261673843      0.51262681870712
  N   2.36319234169167      1.47953303261735      0.36739234782105
  N   -0.59655346681753     -1.12559668371879     -1.20132481663464
  N   -4.23370821664641      2.72948243417848      1.43727229847322
  C   -5.36986707078461      2.07088382421256      1.13532844919174
  O   -5.48892767208599      1.01747982533329      0.55667634147092
  O   -6.44165912727388      2.78326051387905      1.59321230696461
  C   -7.69583298932863      2.17845991949489      1.33146979212603
  H   -8.44318207658446      2.84908043716356      1.74823578964769
  H   -7.76013530352004      1.19867037283643      1.80478517425075
  H   -7.85133743007503      2.05682334210572      0.25953387432641
  O   -2.41241481958496      5.69542469243796      0.65069332645818
  O   -2.59730850793537      6.62288405659106      2.69419428348918
  C   -2.42800363639602      5.64914968886370      1.99207595169627
  N   -2.26219127007241      4.38219241758230      2.46001391844946
  H   -2.55275378297031      6.85567781776800     -0.98039151378870
  C   -2.59743625394921      6.98847264846785      0.09689514209945
  H   -3.56288468667007      7.39923708880331      0.39155205381555
  H   -1.81131659988017      7.66522397715882      0.43032631277634
  H   -3.30222807428719      0.61166688833887      0.03107168048516
  H   -4.34851423663287      3.59526661396083      1.94006534156190
  H   -2.20990178148064      4.34771517211146      3.46796035134557
  H   0.19182416267246      3.62885252910595      1.83933302070237
