20
Coordinates from ORCA-job 236optt
  C   -0.81190472792063      3.08665405747370      1.07657110170553
  C   -2.13668264656117      3.36646193868153      1.37679875511694
  C   -0.49853061250032      1.73459528510743      0.64546264475426
  C   -1.51440937577105      0.79013813210514      0.55216589245357
  C   -2.83369766095907      1.10148968015844      0.86122666292054
  C   -3.17175670928632      2.44719052814399      1.29380411473198
  C   0.82774233408693      1.36520079870934      0.31748436930367
  N   1.91867469428421      1.07867170716034      0.05199679777292
  C   -3.82929236175604      0.10183187105169      0.75048526551436
  C   0.27893755831780      4.10354896820624      1.17878791117713
  H   -2.38071399874277      4.37663263623948      1.69978841045611
  C   -4.58942297763103      2.78507848670970      1.62645926963924
  H   -1.27146658333023     -0.21560024685437      0.23009669733935
  N   -4.65617715737832     -0.70540316746773      0.66491525322395
  H   -0.11884931887308      5.06335625817072      1.51254841775577
  H   0.78450805099732      4.25921969755228      0.21815608438831
  H   1.06090117779140      3.79517246042057      1.88319199409497
  H   -4.67541540100174      3.82978428731342      1.92992941654955
  H   -4.97907184384732      2.16064063503758      2.43946971644957
  H   -5.25980243991851      2.62124598608045      0.77416122465224
