18
Coordinates from ORCA-job 237optt
  C   -0.83778045527362      3.01731270338093      1.20600179914934
  C   -2.09858886912057      3.49395627037291      1.50375471557493
  C   -0.60702031349816      1.72018219491582      0.73634703353245
  C   -1.71472034903379      0.79198482412644      0.53634108063202
  C   -3.00299945231881      1.34245391128793      0.86302383150154
  C   -3.19592856024088      2.62581060630923      1.32361933568958
  C   0.75280645557276      1.40679473308184      0.48576476985223
  N   1.88488554265385      1.24090238543070      0.30970438859582
  C   -4.18284261349470      0.54009517957644      0.71455309236218
  H   0.02388261938403      3.66247473309660      1.33591395628264
  H   -2.24095182998110      4.50233191361314      1.86492612401677
  H   -4.20315762459885      2.95509105974760      1.54446209438016
  C   -1.60755553916683     -0.54187911153053      0.06668619649366
  N   -5.14582042757415     -0.08113386361940      0.60287846805948
  C   -0.50544202266558     -1.25624227524460     -0.30006123640788
  H   -2.55812743636472     -1.06281983557705     -0.00849684068259
  H   0.49961274060165     -0.86545319104473     -0.27669576677084
  H   -0.62974186488047     -2.27705223792330     -0.63698304226152
