18
Coordinates from ORCA-job 238optt
  C   -0.91979635689749      3.25688213850882      1.12901464377155
  C   -2.30962242407336      3.44702159560075      1.35824958117317
  C   -0.53475816952022      1.90510039046866      0.75984333672366
  C   -1.48848476983061      0.90089339613980      0.65130120134059
  C   -2.84127106005932      1.13277951845680      0.88636266290290
  C   -3.24543139849695      2.46142443687556      1.25171737785192
  C   0.80469442866928      1.51025755117936      0.48630603964272
  N   1.86947600542653      1.12687697525398      0.25451778430096
  C   -3.78634337776801      0.08696991147531      0.76674194512687
  C   -0.04662145526861      4.37400293813802      1.27583579979229
  H   -2.63259116396292      4.44536788427384      1.63547845221591
  H   -4.29081784247415      2.66705236092432      1.43923939466848
  H   -1.16345005746200     -0.09442748784153      0.37368391865046
  N   -4.57475403930606     -0.75392076802045      0.67113032758314
  C   1.29853998396871      4.47902391882639      1.12326382045450
  H   -0.57069342852815      5.28533363521325      1.55871566044302
  H   1.93379472381027      3.65191844228063      0.84590529714008
  H   1.77677040177308      5.43640316224647      1.28437275621776
