23
Coordinates from ORCA-job 245optt
  C   -0.44058460554607      3.05860172092466      0.90640532283814
  C   -1.59681826902073      3.38858426655223      1.57981586712794
  C   -0.39278948294327      1.75923981419370      0.24125620277353
  C   -1.49889059965239      0.90060903544872      0.33235193657695
  C   -2.63634843224842      1.26013430759679      1.02790358996626
  C   -2.70804710986327      2.54538625303244      1.67034636854323
  C   0.72721350135078      1.35921962545173     -0.51377532619379
  N   1.65946639880280      1.03994237773936     -1.12871910382540
  C   -3.73102390851418      0.35525450805612      1.09179796108522
  C   0.78237831264204      3.93895665185844      0.84963190850213
  H   -1.65677628413543      4.35419942836207      2.06983441838669
  H   -3.60003215010523      2.84059004314656      2.20220931753133
  H   -1.45902261665880     -0.06373459790262     -0.15964608277614
  N   -4.63322589926720     -0.36343677129783      1.15746858958553
  C   1.91060370110799      3.37612206968793      1.72695883651475
  H   1.60419467445444      3.39907178615155      2.77602223828931
  H   2.82302657518483      3.96938721738569      1.61785149199726
  H   2.14141797275029      2.34571589683750      1.45810229930347
  C   0.51607788750579      5.39185528850559      1.22951066038379
  H   1.14785713722189      3.92555573067274     -0.18538045509768
  H   1.41586936644840      5.99152946153545      1.07648946895835
  H   0.24082848206316      5.47613408584882      2.28380589854610
  H   -0.29186465157736      5.81935180021223      0.63356859098299
