32
Coordinates from ORCA-job 250optt
  C   -0.90807860596863      3.22352699512633      0.87313182451976
  C   -2.16535770006318      3.52316204133280      1.38192365188121
  C   -0.67169419229680      1.84748969309091      0.46367893316312
  C   -1.67161433236112      0.89754831533628      0.63267480153552
  C   -2.91186724555657      1.22565451704701      1.16632026307834
  C   -3.19301779374188      2.60271089174988      1.54235903176617
  C   0.55542880523457      1.45159865983510     -0.12052860786577
  N   1.56937208226056      1.14362097316095     -0.58919356175916
  C   -3.87329923461718      0.20203232951457      1.34407807949549
  C   0.22005090889066      4.21792783688333      0.76992364899702
  H   -2.35844293803851      4.54872036316136      1.67468148404716
  C   -4.57651720763116      2.95762220009725      2.02420891724608
  H   -1.47868357629246     -0.12787122560420      0.34002342312408
  N   -4.67682273043381     -0.61986306717493      1.48980172570475
  C   1.30317155809103      3.94734370197484      1.82596063379903
  H   0.88879635512645      4.10661382415215      2.82489858551846
  H   2.15733960826144      4.61782733909325      1.69212680608858
  H   1.66433727065876      2.92105817286931      1.76372582591076
  C   -0.23018296760162      5.67244743599641      0.86415968162518
  H   0.69411545393536      4.08046532770633     -0.21097647984395
  H   0.61537883571254      6.34044290200959      0.68702821986433
  H   -0.62261727229950      5.89679916277835      1.85922780843729
  H   -1.00960146197914      5.89780239814661      0.13433662761948
  C   -4.65431633317574      4.30433571808227      2.73675447952487
  H   -3.93344196975336      4.36628103814781      3.55366455919612
  H   -5.65576457386242      4.45734495819725      3.14457319016863
  H   -4.45332534426911      5.12596848242280      2.04463261637073
  C   -5.59381100190533      2.92648759089817      0.87292451482411
  H   -4.88624699479021      2.18544120673797      2.74072789606135
  H   -6.60877024901117      3.10342366239145      1.24116374180367
  H   -5.58043169306942      1.96293638598608      0.36392542715701
  H   -5.34706545945290      3.70377016885249      0.14501225094048
