34
Coordinates from ORCA-job 257optt
  C   -1.04613998669351      3.23664764483511      1.17918660472043
  C   -2.46280248611469      3.35012517823547      1.38855964512488
  C   -0.56747422367240      1.90294625911359      0.86987337957763
  C   -1.42604479235118      0.83195427674343      0.72117752526752
  C   -2.80935017962174      0.98240282193005      0.87605690358419
  C   -3.30100989400586      2.27487200315778      1.23186474685380
  C   0.80344814714418      1.62494191442909      0.58177964761873
  N   1.89663530440721      1.35207107096946      0.33641805264427
  C   -3.68424931342080     -0.11643636699953      0.72609360399769
  C   -0.15085764464712      4.38127822083731      1.21670117308303
  C   -3.08303293297624      4.58823094230513      1.93103982012007
  H   -4.35419583365664      2.38755225038424      1.45589250294707
  H   -1.01765984911121     -0.13665476096652      0.46285278441260
  N   -4.41061925170170     -1.00875465814114      0.60259396109995
  C   1.13995999533619      4.30482247809099      1.77950565122175
  C   -0.53225863036363      5.63447781181139      0.68997070656803
  C   1.98131717479322      5.40335229995419      1.81783708214137
  C   0.30983915954293      6.72984870803577      0.73562897449420
  C   1.57881299959464      6.63079655342549      1.30056826521844
  H   2.96250669699772      5.30047187811141      2.26614506549377
  H   2.23876372952402      7.48809286170861      1.33218669324572
  H   1.47641613864019      3.37288976006052      2.21291904707923
  H   -1.50329356706213      5.73389531493154      0.22237896470229
  H   -0.02280250374377      7.67075131368706      0.31295873938384
  C   -4.25845149702465      5.10216342712878      1.38165279976687
  C   -2.53134649594108      5.24425621102669      3.03500422994008
  C   -3.14222702497656      6.36311021401076      3.57650302481000
  C   -4.87037480440390      6.22642135643268      1.92113045962571
  C   -4.31563172504134      6.86318438330034      3.02211661541228
  H   -2.69800329432226      6.85144748817126      4.43506044842998
  H   -4.78755929546302      7.74291654490130      3.44127803192774
  H   -1.61090503304676      4.86640711190709      3.46186302885204
  H   -4.68545275912556      4.61599180881604      0.51272045517283
  H   -5.77947632749246      6.60899567765437      1.47322136546194
