14
Coordinates from ORCA-job 259optt
  C   -0.89408050023541      3.11407412347383      1.09526883095691
  C   -2.16820930655115      3.45331140102317      1.40771892570194
  C   -0.50558512656436      1.79893265626166      0.66487040750007
  C   -1.55685736388682      0.84747721495382      0.57519895723018
  C   -2.85515117630705      1.18301519053599      0.88874920046051
  C   -3.21177645331410      2.49723457707875      1.31965144711925
  C   0.82038290424425      1.47163637219008      0.35409764405240
  N   1.91326652466519      1.17809145108738      0.09073135476690
  C   -3.86602615699479      0.17856795005428      0.77459055762017
  F   0.08751633723990      4.04224651520099      1.18171357375697
  H   -2.36602648073572      4.46976081367464      1.72409367733954
  H   -4.23267201149218      2.74421986986954      1.56294744687040
  H   -1.32661105023289     -0.15937531084693      0.25292187595519
  N   -4.69606013983487     -0.61653282455723      0.68935610066954
