23
Coordinates from ORCA-job 25optt
  C   -3.77044170055010      1.09613185402513      0.03174495619217
  C   -3.72067722883104     -0.30730750568575     -0.15234297011496
  C   -2.47856439605977      1.75241877134566      0.17018061816282
  C   -1.29069848902093      0.99241876967436      0.05838011383555
  C   -1.30085591438659     -0.36098832736772     -0.14547066013137
  C   -2.55635524793104     -1.02568106933515     -0.24272655796295
  H   -0.34783672011703      1.51810414830061      0.15980992536249
  H   -0.37224830121995     -0.91061277661462     -0.22849302869484
  C   -5.03820813191184      1.78262062422086      0.01677211255029
  C   -2.30497274012933      3.10515593978045      0.53757702387279
  H   -4.65620723747985     -0.83616868422867     -0.28696528254551
  H   -2.59689348896850     -2.09368659351343     -0.41929010400490
  N   -2.10038474695313      4.20555457515295      0.84247932954347
  C   -5.16734680554180      3.14804252189035     -0.34714143423086
  C   -6.24988780686175      1.11867685895531      0.34875195349741
  C   -7.47327499524101      1.75403595279164      0.29696756532943
  C   -6.39856160746953      3.77383852703632     -0.39704697394707
  C   -7.57478144622788      3.09514948147454     -0.08032090188338
  H   -8.36555436503646      1.20238151215819      0.57326750802006
  H   -8.53458698649014      3.59407937673235     -0.11433734835381
  H   -4.28848889328328      3.71435865990685     -0.61817343696024
  H   -6.44228688256402      4.81590275935557     -0.69418944911194
  H   -6.21552586772466      0.09228462394407      0.69056704157535
