14
Coordinates from ORCA-job 264optt
  C   -0.84802609007479      3.06640070565469      1.07478731415741
  C   -2.15587060704017      3.44509111190406      1.40306525575535
  C   -0.49589002872868      1.80454626875154      0.66416582218414
  C   -1.51336922803019      0.78769084114905      0.55173643712002
  C   -2.86872639434620      1.16088228747510      0.88412761427609
  C   -3.12954877562624      2.44759233420436      1.28897137489240
  C   0.86150705314608      1.52413551299268      0.35967920167623
  N   1.95530708422836      1.26079442061948      0.10299533083697
  C   -3.93222796519326      0.22652408162262      0.79971332559890
  F   0.10331430554067      4.01402573984427      1.17593785949593
  H   -2.39767122059361      4.44471107219708      1.72377565572036
  F   -4.39307116542814      2.79279421944335      1.60034131813564
  H   -1.27134744714844     -0.21143231280483      0.23327322969681
  N   -4.77229952070536     -0.56108628305346      0.71932026045371
