14
Coordinates from ORCA-job 270optt
  C   -0.87186494150989      3.09347586957129      1.09024308305128
  C   -2.18785252404053      3.38065176423053      1.38881242458383
  C   -0.52801882271640      1.75076443014107      0.65505722468191
  C   -1.54962440298076      0.80212485549150      0.56194854713668
  C   -2.86131932007751      1.11146381721439      0.86870726273953
  C   -3.20763106421960      2.44367242353842      1.29636041286036
  C   0.79406822006080      1.38420928094392      0.32722777460278
  N   1.86934308646587      1.05533365329778      0.05173728677779
  C   -3.86271858939951      0.11167641011695      0.76053700548905
  Cl  0.38662699762091      4.26556786608868      1.21629805077292
  Cl  -2.62551316242728      4.98367668316831      1.90892190442813
  H   -4.22354109559990      2.71033213721302      1.53787532225057
  H   -1.29934510513001     -0.20069280306550      0.24019413501688
  N   -4.69050927604615     -0.68958638795041      0.67799956560829
