15
Coordinates from ORCA-job 273optt
  C   -0.88509336527360      3.12257104414088      1.09945663611771
  C   -2.17423891177936      3.44249537961634      1.40437761490069
  C   -0.51468236597573      1.80118406460075      0.66733365877260
  C   -1.56287183129083      0.84155977183958      0.57536749258032
  C   -2.86347087585744      1.17403779411036      0.88628312992564
  C   -3.22166228167236      2.48229616229820      1.31128602428003
  C   0.81008762281839      1.47071365471243      0.35138156965206
  N   1.89831012270210      1.16456555942705      0.08156385814528
  C   -3.87362407705607      0.16709922005115      0.77553381075885
  O   0.14271673320689      4.02755347850147      1.18070650398360
  H   -2.39875987905867      4.45576782595080      1.72537810436203
  H   -4.24360194953756      2.72911694338736      1.55151605397677
  H   -1.32780233995161     -0.16455939250480      0.25506998114801
  N   -4.70194062575977     -0.62982742335202      0.69268427829481
  H   -0.22317597551436      4.86596591722043      1.47646128310158
