16
Coordinates from ORCA-job 276optt
  C   -0.84753655381670      3.16955506320486      1.10641779513509
  C   -2.16790333065120      3.45729131399141      1.40802628368801
  C   -0.50841723329317      1.83244404547768      0.67454388543252
  C   -1.52036770363517      0.86236630257512      0.57329459438517
  C   -2.83670664833245      1.17731504099918      0.88260782249740
  C   -3.17270481677637      2.51494331650027      1.31280460136559
  C   0.80115589592441      1.44761933828384      0.34662542952281
  N   1.86178735323799      1.06755946628856      0.06167194509154
  C   -3.84231774018237      0.18722847726266      0.77561384946054
  H   -0.07403705016021      3.92212514543489      1.18810090635734
  O   -2.53063196802152      4.72333773455574      1.82337445188853
  H   -4.19194389371217      2.77292771811299      1.55583965060087
  O   -1.23607827856884     -0.40278186352531      0.17203394162352
  N   -4.69561756873842     -0.58883296952673      0.70276494419566
  H   -0.28911483898108     -0.46837965606728     -0.00691462730865
  H   -1.73588562429271      5.26318152643209      1.83950452606401
