18
Coordinates from ORCA-job 279optt
  C   -0.84968153643874      3.36421197061148      1.22568502789537
  C   -2.20929603546918      3.61981220146754      1.21036858590223
  C   -0.39309159241145      1.99285024791945      1.12357394339738
  C   -1.33977707729211      0.97311538430420      1.01091583586476
  C   -2.70483943834787      1.24302400559305      0.98349559428185
  C   -3.15616001662653      2.61462766433001      1.09483159068702
  C   0.98113574641742      1.67140815800833      1.12185683374397
  N   2.11615801488553      1.44082916359493      1.10545563048593
  C   -3.62231859004614      0.17908533411119      0.82279050088039
  H   -0.12401347087382      4.15932630880611      1.31506711542350
  H   -2.54721047945627      4.64750580974107      1.29167956200643
  H   -4.21463944719748      2.82866387748053      1.08277560620632
  O   -0.91987169729465     -0.33013597499243      0.93324344243099
  N   -4.40595768492957     -0.66067705467559      0.68184086447736
  C   -0.58225271592180     -0.73603432355613     -0.38097705904569
  H   -0.27488795404210     -1.77824303135140     -0.31764220001331
  H   0.24336745954059     -0.13555904199971     -0.77246598232926
  H   -1.45127348449578     -0.65090069939270     -1.04019489229527
