18
Coordinates from ORCA-job 280optt
  C   -0.63589773089416      3.01302516687679      1.06475762220638
  C   -1.89075853478003      3.46976456372703      1.35204357035266
  C   -0.41058068891463      1.64418123782527      0.65597829721337
  C   -1.54593841828688      0.79966923440481      0.56586400852435
  C   -2.80901278371901      1.26825407641519      0.85724152579623
  C   -3.02536030009343      2.61628640798874      1.26005095527724
  C   0.87556300966658      1.16796488232087      0.36334814268579
  N   1.92812405431052      0.74424767454186      0.11273223831339
  C   -3.91698897526574      0.37227966450838      0.75000713074700
  O   0.50335620885636      3.76651732688652      1.12837313465959
  H   -2.03766467284864      4.49703915454547      1.65589671817906
  H   -4.01750820389830      2.97416898898131      1.48604577775293
  H   -1.41196874550128     -0.23034335754282      0.26280219162333
  N   -4.82492958705302     -0.33400568948499      0.67068053072449
  C   0.36705829999702      5.10229635293051      1.51768284799218
  H   -0.27356303593418      5.65770951394813      0.82339382243647
  H   1.36717339405470      5.53169924596523      1.50965793817982
  H   -0.05637328969585      5.18380555516166      2.52516354733573
