22
Coordinates from ORCA-job 284optt
  C   -0.75140424914733      3.42579727036065      0.70519154271870
  C   -1.97141287154325      3.85624705955368      1.20258342740960
  C   -0.54929226623660      2.02190921722999      0.41499427205926
  C   -1.60422719646107      1.13278572092400      0.63143684855451
  C   -2.82211449050024      1.57694083359034      1.11394492402113
  C   -3.03260884296680      2.97514446662318      1.41382016912851
  C   0.69152724015893      1.55857878533882     -0.06843115358137
  N   1.71721379588413      1.17454754536492     -0.44850949358838
  C   -3.87168885771155      0.64547003494319      1.32091877241662
  O   0.27137431371699      4.31643555397010      0.47743210065735
  O   -2.05443338333930      5.19745721705921      1.47240470900319
  H   -3.98751213579095      3.29973164729655      1.79144252228290
  H   -1.46514098812816      0.08126101337848      0.41509959593214
  N   -4.74234893000516     -0.09530063273207      1.49500163782659
  C   1.20089117449211      4.37746424466473      1.54207710406838
  H   0.71333380541000      4.73405083541940      2.45509783160503
  H   1.98341824106919      5.07704824001910      1.24751008645779
  H   1.64789904585999      3.39610049325339      1.72746326998238
  C   -3.27453528930746      5.68070622259656      1.96525490032651
  H   -3.14359727065399      6.75178305776457      2.11044411896408
  H   -3.53549100116571      5.21494166047317      2.92087381702142
  H   -4.09034984363374      5.50900951290791      1.25630899673360
