17
Coordinates from ORCA-job 288optt
  C   -0.95983033754064      3.21955184118019      1.11183995255683
  C   -2.30725159181741      3.56520738990977      1.40884017090729
  C   -0.61151885532820      1.95332019126476      0.71411587830504
  C   -1.58213871590912      0.91360856842623      0.58328856483590
  C   -2.91356511220177      1.25530366916148      0.89486912619723
  C   -3.28112199625712      2.52354734293832      1.29359180361241
  C   0.76022918609066      1.66615449299898      0.42140037975395
  N   1.85627117282832      1.41115273873067      0.17871224052292
  C   -3.93265965871296      0.24819041415551      0.80381381988879
  H   -0.20800121416696      3.99169562097506      1.20566000425623
  C   -2.58071988938990      4.92158819071063      1.80465806267337
  H   -4.32655040458616      2.67925342878394      1.53190646141664
  H   -1.30952340360417     -0.08201073523965      0.27338543185299
  N   -4.74626051837667     -0.56125117075877      0.72692461443619
  O   -1.74634670011221      5.79525509185978      1.96011875620758
  O   -3.89864591142245      5.26341612575408      2.02691156703296
  H   -4.46767604949318      4.52156679914892      1.80598316554366
