20
Coordinates from ORCA-job 289optt
  C   -0.94182038809102      2.98661343160759      1.13100266843521
  C   -2.27702360179392      3.33463712897950      1.49019612964170
  C   -0.71409176099489      1.62217904172955      0.73379737223457
  C   -1.74726937023923      0.70427758232991      0.69748548701883
  C   -3.07344937528142      1.08773908442690      1.05238516873686
  C   -3.29777769819738      2.43952529759004      1.45694656521158
  C   0.57178917098427      1.22563644127122      0.22489355297882
  N   1.56101255876410      0.89726351828725     -0.25667305829136
  C   -4.16099377186685      0.19065102789146      1.06560672214052
  C   0.14770875223444      3.93964748019256      1.21556618339940
  H   -2.49264168805147      4.33011334959205      1.86012078483278
  H   -4.29429901785689      2.73152175567663      1.76029604917901
  C   -1.46668553477977     -0.70552983813311      0.25622107177563
  N   -5.08137399279684     -0.51237226266598      1.05246610699469
  O   -0.55322137600298     -1.36331865178821      0.65270235134183
  O   -2.32478354847117     -1.22088739235007     -0.64943811098836
  H   -3.05638490178245     -0.61345168968935     -0.81699173337121
  O   1.32502189585667      3.67852234885609      1.26777662354262
  O   -0.21424429398530      5.27084627972465      1.26184890679494
  H   -1.12948205764781      5.36486606647118      0.98315115839191
