20
Coordinates from ORCA-job 292optt
  C   -0.79669153430950      3.15125196217188      1.13889203426374
  C   -2.09956485593778      3.51794023292410      1.43220749833887
  C   -0.56735830054325      1.79208425557368      0.69791829892960
  C   -1.64566403943564      0.93722919819591      0.57592123791304
  C   -2.95579957730500      1.32507162358480      0.87036619776512
  C   -3.20284355731101      2.67880169800013      1.32361617592673
  C   0.70611806210484      1.26651639488794      0.32885650308228
  N   1.67186614854101      0.73699061859568     -0.00855793382068
  C   -3.97308450739590      0.35979364350803      0.70770509664003
  C   0.33427887126786      4.06858734508102      1.32112191354559
  H   -2.33201546455948      4.50596305806655      1.81278010998689
  C   -4.49659264693110      3.27767352507606      1.69368683179985
  H   -1.46972031342053     -0.07442009208385      0.23328169186942
  N   -4.83785150826398     -0.40093965058141      0.58903536408767
  O   1.48707996214593      3.72588378519878      1.35132588730807
  O   0.04755960802066      5.39407098232519      1.46692280296363
  H   -0.88758064720041      5.55231781402954      1.30502359552292
  O   -4.61116932429514      4.42774851107467      2.05630445613811
  O   -5.61575912404284      2.52383274321533      1.62722073562729
  H   -5.45440725112866      1.61791235115584      1.33130150211179
