18
Coordinates from ORCA-job 294optt
  C   -0.42472936770587      3.14780800621300      1.07855116779513
  C   -1.67529891543398      3.63586280469507      1.38442131283425
  C   -0.29057496246317      1.75633854743461      0.66019559566265
  C   -1.45159328962238      0.97089868564335      0.58763554092380
  C   -2.69626741357040      1.47900665108088      0.89915035266598
  C   -2.83038711139507      2.84974858263125      1.31195809989300
  C   0.95470369343822      1.18714270283895      0.33278287108782
  N   1.97580966693835      0.70814599470861      0.05930986318676
  C   -3.83739523190534      0.63573818420581      0.80831972852616
  S   1.07222084131542      4.07306329917658      1.14453024551585
  H   -1.78740506769717      4.66665078282135      1.69503165264326
  H   -3.79968135505875      3.25593120595129      1.55795181640299
  H   -1.36064614819269     -0.06300915492842      0.27818221371590
  N   -4.77859526243977     -0.03044317989492      0.74225039595210
  C   0.49075823127224      5.67739591503515      1.69895292996028
  H   -0.20876094965301      6.11379986117911      0.98553536078416
  H   1.37198394747264      6.31281388317558      1.76943955334888
  H   0.01822869470079      5.60935722803270      2.67912129910101
