22
Coordinates from ORCA-job 296optt
  C   -0.45195391275148      2.85770416047431      0.80289192077741
  C   -1.54735594022408      3.24689294318741      1.52335308498103
  C   -0.45344204284214      1.59260024461610      0.08834368527941
  C   -1.61436436049756      0.75680633183627      0.19831279450107
  C   -2.69803750571919      1.18263320672792      0.94897784784280
  C   -2.70052270998496      2.43597519979849      1.60743740562321
  C   0.63860043073423      1.22346333161570     -0.70837900015541
  N   1.56087490603886      0.91192878147765     -1.34484533902234
  C   -3.86344733194889      0.36005998552770      1.09699824905021
  S   1.02342505651292      3.80965806521566      0.64567778852712
  H   -1.54892863379788      4.19161399411525      2.04870455291304
  H   -3.56277831314453      2.74491113966355      2.17812568871030
  S   -1.69656798706947     -0.77807768565450     -0.66204747247216
  N   -4.83104990359861     -0.23732199079009      1.27536884134501
  C   -0.33223724476871     -1.68976663495595      0.11165014636460
  H   0.62935254684694     -1.24663459964075     -0.13749011339484
  H   -0.38123071772736     -2.70134772248573     -0.29035807011277
  H   -0.47482203789743     -1.72263710480634      1.19042550547605
  C   0.62834430946855      5.27452974924315      1.60439412071069
  H   1.50298086238823      5.91986899420886      1.54134650698383
  H   0.44065636660938      5.02791575846483      2.64934008720036
  H   -0.23309583662674      5.79800385216039      1.18968176887129
