22
Coordinates from ORCA-job 297optt
  C   -1.40841801567243      3.29292020451947      1.04794388973928
  C   -2.67548040297566      3.39119531198462      1.55725079509309
  C   -1.00802048498501      2.10462984731493      0.32261739631122
  C   -1.92219615988521      1.02402202341117      0.21110803505334
  C   -3.18903130291504      1.14957873603134      0.75897537768988
  C   -3.60918028967777      2.34689542343989      1.41499027648183
  C   0.26511284015327      2.07155951410713     -0.26904623049231
  N   1.33467035906382      2.07531963311278     -0.72168688729222
  C   -4.13082630132701      0.07532269916919      0.69164422052150
  H   -0.68518104273340      4.08760658419375      1.14946510257883
  S   -3.26722891822491      4.80368383746859      2.44249043753868
  H   -4.61093277339307      2.42601318503165      1.81007530599482
  S   -1.49194386557305     -0.44955741572133     -0.66107402285744
  N   -4.94606259694612     -0.73892048617140      0.68501572360641
  C   -0.06579595653735     -1.02156764618916      0.29999724650983
  H   0.17983507173323     -2.00910560347983     -0.08925556039671
  H   -0.33972934700337     -1.10671104996631      1.35002078797884
  H   0.78866282920522     -0.35998521441538      0.17767530236939
  C   -1.88689486578948      5.94783387900634      2.33699282222265
  H   -2.20776578320730      6.85924572557779      2.83868178864952
  H   -1.64570948626645      6.17350050272509      1.29893631882421
  H   -1.00645350704274      5.55234030884948      2.84190187387530
