22
Coordinates from ORCA-job 300optt
  C   -0.81030213440646      3.18837194251783      0.96499987339310
  C   -1.87177127207266      3.60139957475884      1.74708158960056
  C   -0.79754583471438      1.83179128658873      0.46038082615558
  C   -1.83159464065137      0.95385736789128      0.81742419159631
  C   -2.86391164675715      1.37290857725830      1.65437192323363
  C   -2.90757761815428      2.75032276747991      2.09637265436209
  C   0.24497455362122      1.37188155902923     -0.36955654283157
  N   1.11257040332848      0.99063629270566     -1.03728438065687
  C   -3.83318219688364      0.45469300377333      2.11927968604688
  H   -0.00693567390450      3.85888467326903      0.69767511069494
  H   -1.89364248540132      4.62605268782654      2.10207981756785
  H   -3.72753548637685      3.07788940020276      2.71798019551724
  N   -1.74536041794795     -0.38182934646245      0.37090508478889
  N   -4.63877391586501     -0.27440347317152      2.51677019504384
  C   -2.71598318737189     -1.15578341044061     -0.19335684959216
  H   -0.82242770317863     -0.78487691584506      0.30665041022501
  O   -2.57549101537964     -2.33218667496063     -0.43803536096511
  O   -3.82376522279815     -0.45926070078110     -0.47686818375463
  C   -4.97929087359042     -1.24539968451380     -0.72537293706345
  H   -5.25447220338994     -1.78721243583971      0.17974343959294
  H   -4.80147044923072     -1.94535393091859     -1.54072967014321
  H   -5.76367097887460     -0.54003256036799     -0.98591107281189
