22
Coordinates from ORCA-job 302optt
  C   -0.57784497796645      0.72420117075797      0.69877707309463
  C   -1.91027675488449      0.36856980276819      0.48944985507915
  C   -0.18813405231579      1.22434541203544      1.99417535091416
  C   -1.14349639558745      1.36476896556730      2.99200499214519
  C   -2.46995317079597      1.01607841414674      2.76138859618192
  C   -2.86986830611688      0.48282210672467      1.47668977372565
  C   1.15699463264322      1.58486616235572      2.24991146369766
  N   2.26120543093312      1.87447791228173      2.43824295738024
  C   -3.42690535340481      1.17302233503229      3.79127030698532
  H   -3.88975787836496      0.18302526474553      1.31496406619278
  N   -2.18674010154241     -0.16644144508078     -0.79955583509230
  N   -4.22362891805122      1.29303858718444      4.62232197499497
  C   -3.31456220813486     -0.26067571886593     -1.53995697522698
  O   -3.33840156907574     -0.71910073985692     -2.66551101679235
  O   -4.41257941280704      0.20209544057855     -0.92055067328408
  C   -5.60595302782101      0.11132420657442     -1.68207840048009
  H   -5.82168870516220     -0.92557950332801     -1.93812746270399
  H   -5.52108454560816      0.68892910139496     -2.60202527938814
  H   -6.38933644467326      0.51805854710196     -1.04819538887012
  H   -0.85189449526842      1.75128234256961      3.96040281743579
  H   0.14870313453851      0.65070964681666     -0.09836839516288
  H   -1.37601688053362     -0.46663801150456     -1.31667980082652
