30
Coordinates from ORCA-job 303optt
  C   -0.96332575180679      0.43041656450561      0.91523516845988
  C   -2.17114399949935      0.68816402265653      0.27595686093386
  C   -0.80319977665154      0.80977259879855      2.29642195103474
  C   -1.84807230714610      1.45729815426642      2.96506250622716
  C   -3.03261067419951      1.74816911368948      2.29141117365976
  C   -3.21203657536858      1.33026552780255      0.91883352313159
  C   0.40061410323665      0.54250821569091      2.98277776113737
  N   1.39503367770563      0.33780307896957      3.54000763171926
  C   -4.05093674416719      2.50619142350026      2.91406478945717
  H   -4.13438509754714      1.56194466468979      0.41733113280718
  N   -2.22677263533243      0.29488019844532     -1.08905274862062
  N   -4.89904579188269      3.12504090092890      3.39915229576103
  C   -3.25049046853217      0.00044730708376     -1.92297236615843
  O   -3.09286606626746     -0.36463635831744     -3.07116330699681
  O   -4.46281170963648      0.14438738489446     -1.36445371743002
  C   -5.55117673430664     -0.17141647985869     -2.21843765884917
  H   -5.49523679968008     -1.20921590535588     -2.54545305199574
  H   -5.55160287879908      0.47356925334672     -3.09650360189248
  H   -6.44628593705691     -0.00724054256296     -1.62458488929166
  N   -1.63161095015173      1.87286435677301      4.29508990018499
  H   -0.16573400583413     -0.09517656947524      0.40937102525761
  H   -1.33305514704362      0.11748878124834     -1.51836194350810
  C   -2.44658752796609      1.72115830745619      5.37854447381194
  H   -0.70504065095260      2.19429643700947      4.53201662392604
  O   -2.21890572016399      2.21310226799107      6.45957135471684
  O   -3.50270414795338      0.94181627371896      5.11674263191057
  C   -4.54912388897356      1.00917922390646      6.07384734749045
  H   -5.29719223831847      0.29470514070217      5.74182786999960
  H   -4.97341402959545      2.01318152622777      6.08346691947094
  H   -4.18072952610867      0.75140513126789      7.06589034364488
