33
Coordinates from ORCA-job 30optt
  C   -4.68558353123514     -0.36280259198441      0.04378327475851
  C   -4.47902468639196     -1.77411556479304      0.02268288281634
  C   -3.48397157152523      0.45740099479686     -0.07021200696224
  C   -2.21533386909857     -0.14609055066513     -0.16495123919002
  C   -2.05675658771246     -1.50668730019893     -0.14281403410989
  C   -3.21404436583092     -2.32362311772951     -0.05103347581386
  H   -1.35045041183969      0.50326446976336     -0.23894880273333
  H   -1.07356252394015     -1.95060182233402     -0.22472644617276
  C   -6.00070828247177      0.23505448133092      0.16704552566033
  C   -3.48545768564546      1.86597784385397      0.04447632521267
  C   -5.60283753235751     -2.74460637360561     -0.08147538153725
  H   -3.11953407778799     -3.40042602839731     -0.12300324451294
  N   -3.42805609707309      3.02047607743240      0.13545694700217
  C   -6.60095925732843     -2.59585773249672     -1.04831120350065
  C   -5.65660957793002     -3.86479054308327      0.74893443632643
  C   -7.60574284180842     -3.53930318227891     -1.18543553023249
  C   -6.66546364567726     -4.81084351618466      0.61575031348675
  C   -7.64573980498199     -4.65387658544991     -0.35338273319446
  H   -8.36673040171748     -3.40319208151587     -1.94413391364776
  H   -8.43713931694784     -5.38586840133634     -0.45636928323206
  H   -6.58163362990122     -1.72117738653579     -1.68626513911765
  H   -4.89905893402474     -3.98050268630625      1.51473445497496
  H   -6.68859371899213     -5.66846729902394      1.27752968195990
  C   -6.34747445229194      1.41957838536948     -0.52464439395077
  C   -7.00797864567450     -0.31708892608293      0.99508340588263
  C   -8.26247634092612      0.25143452459713      1.09673469846420
  C   -7.60558906732913      1.98326427468009     -0.41750576268887
  C   -8.58570682286141      1.40988192148951      0.39003033412845
  H   -8.99673869796005     -0.20553349716680      1.75075005584303
  H   -9.56730439081801      1.85782375324534      0.47646019472732
  H   -5.61861398027579      1.88768049126493     -1.17186913683612
  H   -7.82616799808287      2.88557854127050     -0.97655850087643
  H   -6.78194725156018     -1.19773057192503      1.58218769706587
