23
Coordinates from ORCA-job 314optt
  C   -0.24411432377984     -0.03049689859587     -0.28529071545714
  C   -0.59595776882911     -0.23741129560067     -1.62369092051698
  C   -1.19561803564352      0.18683625448565      0.69336409355647
  C   -2.57133441173967      0.20892300110309      0.37888282226470
  C   -2.95961297368408      0.00060541885556     -0.99038839652474
  C   -1.96233531649236     -0.21655099449170     -1.95108741739550
  H   0.80702855964846     -0.04310821672615     -0.01449922400189
  C   0.45651284474027     -0.46287207633037     -2.59939762095201
  H   -0.89318453820449      0.34325052787965      1.72174631762161
  H   -2.27350363527775     -0.37204271505690     -2.97791363674753
  C   -3.58971340139859      0.42666903371224      1.34868974894170
  C   -4.34501248653421      0.02355277520386     -1.31562121629974
  C   -4.95945376960218      0.44093918757696      0.98273231436591
  C   -5.31211864733345      0.24062526919329     -0.33665649556980
  C   -3.23088326552989      0.63107165136494      2.70456403960852
  H   -5.70978783674924      0.60855561727861      1.74359433558174
  H   -4.63627688724719     -0.13232373832631     -2.34762336332039
  H   -6.36020369784192      0.25295597987296     -0.61370431812189
  N   -2.93984258504891      0.79813475381553      3.81130811935974
  C   0.32740346660793     -0.68237846238714     -3.91572205612832
  H   1.46310190748608     -0.44770468956119     -2.18629411726296
  H   -0.63916138896041     -0.71317017167014     -4.40242551883884
  H   1.19712819141411     -0.83831021159593     -4.54027677416267
