23
Coordinates from ORCA-job 316optt
  C   -0.25494299982945      0.02300093139294      0.02705367392467
  C   -0.51025481780675     -0.20422437867635     -1.32412463672693
  C   -1.31342447822741      0.23207926426147      0.88937845050855
  C   -2.64657464772351      0.22592744017917      0.44186121153582
  C   -2.92147108594380      0.00442335735225     -0.94629087575133
  C   -1.81218882954255     -0.21350106815889     -1.78943255886703
  H   0.76159848516175      0.03290579935049      0.40111631244130
  H   0.30744074138762     -0.37657884004950     -2.01389038326432
  H   -1.12850549535075      0.40510133872803      1.94323859394055
  H   -1.97228427612023     -0.39892661558019     -2.84195111098853
  C   -3.73896013786083      0.43500100260257      1.35301471796351
  C   -4.29076435025268      0.00663026631242     -1.42199717515163
  C   -5.06125642008972      0.41912361479316      0.86185135299477
  C   -5.31984348037735      0.21364031793364     -0.46603211996477
  C   -3.49552436715289      0.65123192843551      2.72494911989379
  H   -5.87716820948112      0.57656150651974      1.55688495752944
  C   -4.61676943022260     -0.18732223220954     -2.80411980129734
  H   -6.34941094610679      0.21739439968091     -0.79883888914227
  N   -3.28980313454909      0.82854528468181      3.85135832127762
  C   -5.84150460515673     -0.24264822631822     -3.38189558659019
  H   -3.78148941552183     -0.30106220200717     -3.48565380288628
  H   -6.76358429464742     -0.14895272887136     -2.82356081230189
  H   -5.93352380458572     -0.38787016035291     -4.44993895907745
