23
Coordinates from ORCA-job 317optt
  C   -0.97854321524976     -0.01582487899536     -0.09439328284027
  C   -1.20129558360150     -0.13025963396562     -1.46202743777699
  C   -2.06608754280491      0.14861132922561      0.76681617226056
  C   -3.37378503380159      0.20020583570515      0.28637711213690
  C   -3.61465319441349      0.08280585080589     -1.12345560732031
  C   -2.49032505790464     -0.08246076484038     -1.96858886602137
  H   0.02794025444548     -0.05289375903920      0.30315454126154
  H   -0.36348587027657     -0.25798595354014     -2.13851784396860
  H   -1.90203450112469      0.23885114759858      1.83467364373466
  H   -2.65913739850392     -0.17206372393825     -3.03623035784409
  C   -4.52766190875329      0.36935399678662      1.14635469501981
  C   -4.93382803864126      0.13467808658301     -1.61354708641177
  C   -5.82180235385860      0.41548136000105      0.61037394779570
  C   -6.04835630694640      0.30163338635765     -0.75196921319875
  C   -4.34713111238964      0.49050095952980      2.54323371033001
  H   -6.65371501886753      0.54494755721141      1.29174557353521
  H   -5.09720527953197      0.04473569249769     -2.68230687676151
  C   -7.38822268465342      0.34960703868025     -1.32462810068188
  N   -4.18598450338127      0.59091723741354      3.68537864553561
  C   -8.56631647418299      0.49495199602373     -0.70652360072563
  H   -7.40822839199066      0.25235066558023     -2.40875674321021
  H   -8.64982401009777      0.59875632737767      0.36825926815806
  H   -9.48797677346955      0.51363024694104     -1.27286229300669
