33
Coordinates from ORCA-job 31optt
  C   -3.53880337423532      0.79471264712842     -0.08092491740019
  C   -3.22628312022193     -0.55713095044040     -0.16057015166794
  C   -2.43897281481573      1.74852734997708     -0.02759134431142
  C   -1.08567599915413      1.24579526733584     -0.02736386525684
  C   -0.85983480806667     -0.10940296607133     -0.07657315380889
  C   -1.92217486178627     -1.03477942115635     -0.15503606579776
  C   0.08909401501200      2.14490886230233     -0.03306822086486
  H   0.16413527964441     -0.46403826522789     -0.09908139883894
  C   -4.94541578819285      1.18357967961506      0.01955048270622
  C   -2.67262817690627      3.13196541373310     -0.02055281502284
  H   -4.04360256898755     -1.26920587378786     -0.17116843912756
  H   -1.72474816589146     -2.09750550494729     -0.19458173145722
  N   -2.86062628051930      4.28000212093512     -0.02160354532775
  C   -5.37849164540585      2.25697802127564      0.82144660032993
  C   -5.94477527908953      0.46523092536271     -0.66747700385206
  C   -7.28627309654288      0.77735029549683     -0.53926367035259
  C   -6.72260343057926      2.56661551649517      0.94557278361934
  C   -7.69426387886153      1.83342036368063      0.27174134404818
  H   -8.02128364213063      0.20438592171165     -1.09320820056470
  H   -8.74279226327079      2.08652648815473      0.36476856562053
  H   -4.65140030336316      2.84327980858709      1.36450295867493
  H   -7.01505628223534      3.39499652214042      1.58030682912036
  H   -5.64900606109707     -0.33392511617444     -1.33581145172727
  C   0.16262831097502      3.26382406170445     -0.87131485331883
  C   1.19381014009575      1.87198851616388      0.78318428284533
  C   2.33023398848081      2.66634767987412      0.75021805569099
  C   1.29819350457586      4.05791356208476     -0.90395104261172
  C   2.39107610986030      3.76646703968042     -0.09578764018268
  H   1.32794848920041      4.91459621389220     -1.56621943875400
  H   3.27305096047999      4.39447544640413     -0.11741417773392
  H   -0.67870806657252      3.50644249714623     -1.50542368869798
  H   1.14294431941851      1.03080962961405      1.46357413669658
  H   3.16628479018315      2.43345824730938      1.39912077732558
