28
Coordinates from ORCA-job 320optt
  C   -0.50224930299433     -0.02170592912847      0.04319116523515
  C   -0.88894448097141     -0.77872416982718     -1.06128720370921
  C   -1.49425980343658      0.58410298280080      0.81362015549437
  C   -2.85990230515179      0.45911323808610      0.51790245307859
  C   -3.25145569206419     -0.32196234981218     -0.61865838907086
  C   -2.23160359821516     -0.92425428124640     -1.38249946662011
  C   0.95785397198413      0.14873177606242      0.40536891405470
  H   -0.13794005457953     -1.26094763193553     -1.67950906614033
  H   -1.20782520458690      1.17679600180753      1.67681461382289
  H   -2.51886001016685     -1.51646703965055     -2.24510379992713
  C   -3.89190055485983      1.08088524442680      1.30586791942027
  C   -4.62891757567625     -0.46099432940760     -0.93336293893556
  C   -5.25991730119644      0.91455088905707      0.95345188971496
  C   -5.60650931813712      0.15895735958145     -0.14258456777499
  C   -3.54358786010976      1.85702719022772      2.42851748503134
  H   -6.01916419222185      1.39107360308181      1.56022755775822
  H   -4.91074956702927     -1.05388291253766     -1.79534568712210
  H   -6.65418922699179      0.04286495152943     -0.39682423764901
  N   -3.24833420797866      2.49559701430116      3.35096915577443
  C   1.62469544307501     -1.18943434247307      0.73261897761296
  H   1.08992979135708     -1.70139332893946      1.53336801851326
  H   2.66437216737794     -1.04687803953456      1.04063282561274
  H   1.61857397811301     -1.84240921319397     -0.14311970370523
  C   1.73596509785446      0.87272033638718     -0.69618475770821
  H   0.99442985819110      0.77012021938261      1.30490011808593
  H   1.28204789650736      1.83928611414392     -0.91748393796535
  H   1.73030732160037      0.28297495400034     -1.61575922125019
  H   2.77738473030732      1.03332169281025     -0.40317827163155
