28
Coordinates from ORCA-job 323optt
  C   -0.39891958274237      0.45293685535205     -0.21213578175478
  C   -0.68579653178478      0.43298800408466     -1.56830648431117
  C   -1.43612301183063      0.34217774965959      0.71048034672939
  C   -2.77218761055975      0.21153089732231      0.30585780682426
  C   -3.08471254624873      0.19256392488599     -1.09861392885997
  C   -2.00159044358975      0.30221824456805     -2.00226649840833
  H   0.62364109323457      0.55139553490044      0.13209789074240
  H   0.11244795683838      0.51589841976175     -2.29702690273378
  H   -1.21992434689340      0.35577398866390      1.77234167144710
  H   -2.19125607306505      0.28471350535495     -3.06704186619495
  C   -3.84854913323008      0.09618001450160      1.25345389056067
  C   -4.44575128782800      0.07405265621527     -1.52349594629829
  C   -5.18272432509694     -0.02225726534448      0.79660892595339
  C   -5.45679987510087     -0.02963329485338     -0.55072277952372
  C   -3.57733232327464      0.10522158659950      2.63672396036016
  H   -5.98341369613672     -0.10180116199300      1.52076663425788
  C   -4.76512861965319      0.02319489449751     -2.99995969561520
  H   -6.49128784358245     -0.11384000973254     -0.86017021472307
  N   -3.35117709639511      0.11522679660200      3.77381216265597
  C   -4.42323979550347     -1.34961247933013     -3.59920494097920
  H   -3.39787776475385     -1.63642519564123     -3.36521780301712
  H   -4.54952110000215     -1.35524361088297     -4.68682592520672
  H   -5.08666457672370     -2.10598989134842     -3.17224640798281
  C   -6.21463459718331      0.36982102268668     -3.33609646069048
  H   -4.14120122777589      0.76983362571376     -3.50661661833200
  H   -6.34393224653121      0.43735922654252     -4.41899962393323
  H   -6.50895713567960      1.32147719770866     -2.89076601794028
  H   -6.89984625890717     -0.39928123649507     -2.97261939302610
