28
Coordinates from ORCA-job 324optt
  C   -0.64876497987822     -0.24158149491288      0.01592582553139
  C   -1.05582639737505     -0.87734529749571     -1.15261453377145
  C   -1.58790109712816      0.40179225879522      0.81659164896652
  C   -2.94753107324917      0.42902993496272      0.47553981493917
  C   -3.37388428970935     -0.22483958476121     -0.72756273482333
  C   -2.39510404413870     -0.86751045713498     -1.51465815237132
  H   0.39532634092822     -0.24539460195465      0.30496683114720
  H   -0.32952441109137     -1.38044581360202     -1.78069839667465
  H   -1.27418841430732      0.89832240822630      1.72773432754912
  H   -2.71452576114758     -1.36313787761865     -2.42549081164015
  C   -3.94756571612391      1.08437135233899      1.27640735210662
  C   -4.74595269229056     -0.20765481737746     -1.08643987036391
  C   -5.31028924389962      1.07112474447452      0.87191620550186
  C   -5.70476288421317      0.43813420763844     -0.28643074198667
  C   -3.57619806239878      1.74209425816818      2.46510055653788
  H   -6.04407296531978      1.57170921372334      1.49339676198221
  H   -5.04295862813961     -0.70976276336669     -2.00125658696902
  C   -7.16265987213679      0.43983530136118     -0.69336406655149
  N   -3.26457085037070      2.28269879134665      3.44293520017324
  C   -7.37837256403216      1.14968804146122     -2.03255757304339
  H   -6.98533500160125      2.16650261998091     -1.99676265395825
  H   -8.44094973677522      1.19225432100059     -2.28796774356068
  H   -6.85794358142385      0.61977885774937     -2.83307688373827
  C   -7.73952926751908     -0.97722142453480     -0.74858316647668
  H   -7.71006008116196      0.99602799096492      0.07410133540688
  H   -8.80543997179335     -0.95808549635576     -0.99268956874493
  H   -7.60812540051366     -1.48387757963691      0.20834585889793
  H   -7.22735935318969     -1.56797709344085     -1.51088823406585
