28
Coordinates from ORCA-job 325optt
  C   -0.38720782872674     -0.18088192983224     -0.08692208194993
  C   -0.69884022210315     -0.02841307495594     -1.43438823504807
  C   -1.40043698016288     -0.13950617090663      0.86744676285392
  C   -2.74142444524587      0.05192626025786      0.50803670793316
  C   -3.06745440252178      0.20843795037832     -0.87896736472596
  C   -2.01647433589091      0.16309399121474     -1.82066333723614
  H   0.63981500523822     -0.33165448395322      0.22305510083719
  H   0.08551206998071     -0.05972221609325     -2.18209645505170
  H   -1.15803163626829     -0.25890086736102      1.91718577819884
  H   -2.26412081675136      0.28143726447233     -2.87038250675152
  C   -3.81427289958923      0.09465381165813      1.47245051687743
  C   -4.41943448787277      0.39661260490581     -1.25068562500726
  C   -5.16934776277727      0.30006058433837      1.06356269618197
  C   -5.43405325785689      0.44083585770884     -0.28213581477644
  C   -3.50694177845687     -0.08281873592655      2.83530484258977
  C   -6.24229131995418      0.39937814446979      2.12646016433836
  H   -4.66331340482974      0.50716665557102     -2.30072405550178
  H   -6.45578251702513      0.58934940066156     -0.61050113057515
  N   -3.24739798941321     -0.22527140432485      3.95789766634227
  C   -6.16511421782937      1.74689203730616      2.85652920228055
  H   -5.17568059551341      1.90409432088876      3.28469715307342
  H   -6.90032357503989      1.79469731378789      3.66497916499919
  H   -6.37039926407524      2.55745356709032      2.15238695775699
  C   -7.65802211564541      0.18169851858752      1.60126670612240
  H   -6.03816048562278     -0.38072136752266      2.86879366127837
  H   -8.36615386884393      0.15833915574777      2.43260952817183
  H   -7.73983730127240     -0.75522565327779      1.04823218351663
  H   -7.95948956592996      0.99482846510896      0.93642181327162
