33
Coordinates from ORCA-job 32optt
  C   -3.63223398144366      0.41749315994357      0.16450761064770
  C   -3.42329671822322     -0.94029325242729      0.06186050621525
  C   -2.49996399151773      1.28459235750634      0.33372455422184
  C   -1.21153887064103      0.68490931903521      0.36179682892608
  C   -1.03595531194349     -0.66217929511936      0.24414116280457
  C   -2.14579566116909     -1.55456378222586      0.09533048227017
  H   -0.35134258884096      1.32886821091446      0.50095228573483
  H   -0.02911870706041     -1.05325568808961      0.29890341520619
  C   -5.00742767687760      0.94180130667068      0.04309480117410
  C   -2.60448829817577      2.67214940222966      0.55328017271125
  H   -4.29320702550765     -1.55548668712774     -0.12963981186252
  C   -1.97767862222177     -2.98037141850772     -0.03572589500513
  N   -2.65211255042804      3.81826283732407      0.72467733346746
  C   -5.28722280623322      2.11066641548037     -0.67474076935701
  C   -6.08518808358299      0.26878162719987      0.63244562266171
  C   -7.38545802914974      0.72767438640938      0.49215738492962
  C   -6.58767982514610      2.57088895504227     -0.81304642629216
  C   -7.64698684399225      1.88349985000994     -0.23369651265675
  H   -8.19767186580951      0.18796824552200      0.96430906760611
  H   -8.66111264551285      2.24835539806452     -0.33809225100092
  H   -4.47514829222483      2.65607388951944     -1.13611816820543
  H   -6.77407864859386      3.47538533410908     -1.37915728057430
  H   -5.88726610139741     -0.61601724305733      1.22470524622019
  C   -3.05711800225879     -3.89080504429215      0.10342651331590
  C   -0.71521683817071     -3.56863824973665     -0.30518673808776
  C   -2.88636960086685     -5.25508647343019     -0.01959109884302
  C   -0.55327809961301     -4.93548407192698     -0.42453512139496
  C   -1.63235454963213     -5.80705067221158     -0.28526279968663
  H   -3.74514560125797     -5.90551920937858      0.10484587101625
  H   -1.50198293497382     -6.87701667996662     -0.37911648395114
  H   -4.04378479429153     -3.51644823475381      0.34082929118778
  H   0.14816616294533     -2.93406664871792     -0.45096922257125
  H   0.43330740381313     -5.33090804401135     -0.64010957082801
