13
Coordinates from ORCA-job 33optt
  C   -2.97167988731228      0.48357971863119     -0.00000012094244
  C   -2.83937886409613     -0.86697486698744     -0.00000038024213
  C   -1.87574291463038      1.39315992147600     -0.00000020758755
  C   -0.56634983481806      0.77700532400007      0.00000028401775
  C   -0.42896291573153     -0.58952370540459     -0.00000024691555
  C   -1.53713950499559     -1.45389972213353     -0.00000046109658
  H   0.30477207616587      1.41913694571839     -0.00000012846854
  H   0.57185953774040     -1.00950916232111     -0.00000003736212
  F   -4.21932066317442      1.02161685823500      0.00000007410779
  C   -2.05316444714159      2.77744450106527      0.00000006003048
  H   -3.73774969150322     -1.47171089951428      0.00000002871352
  H   -1.41585135469475     -2.52763191574447      0.00000085903164
  N   -2.16001153580829      3.93855700297950      0.00000027671374
