27
Coordinates from ORCA-job 341optt
  C   -0.23831155351128      0.01996650405691      0.15228316338982
  C   -0.47164094646177     -0.21380518941285     -1.20091876051616
  C   -1.30285506061451      0.24006453096145      1.00426854474320
  C   -2.63456676690628      0.24867060657260      0.54365470631794
  C   -2.87600210141131      0.04205729211866     -0.84919979222493
  C   -1.76958524814482     -0.20720057770815     -1.68052550936084
  H   0.77236202887802      0.01891324386601      0.54248235816899
  H   0.35320894108158     -0.40931722515026     -1.87532066238772
  H   -1.12044039398040      0.40700304060545      2.05854245752684
  H   -1.93096875894007     -0.41550740935100     -2.72914331312862
  C   -3.73877101958462      0.45114151728053      1.44746303985189
  C   -4.23837198230913      0.07217278580782     -1.33979063696286
  C   -5.07679682156021      0.45665996810342      0.95051883275551
  C   -5.26368383636124      0.26842906230149     -0.41238422717751
  C   -3.42443097379506      0.63763138881224      2.80906303314881
  C   -6.28080189336449      0.66483643971307      1.74308777633663
  C   -4.54270278844436     -0.06861876282816     -2.74577691616893
  H   -6.28237584868495      0.31538745406506     -0.78044436169661
  N   -3.09573031645958      0.78376860348329      3.91073632255014
  C   -6.43406178519469      0.87423964138049      3.05742209368572
  H   -7.18671280814347      0.63857413419770      1.14182079381266
  H   -5.61147064824609      0.91999946781076      3.75454163090904
  H   -7.43128840789029      1.00685543613893      3.45888539431644
  C   -5.73253475161714     -0.34353810324123     -3.31270124638758
  H   -3.71460576274589      0.08190090246072     -3.43105820735968
  H   -6.62228694747816     -0.54809051642049     -2.73063764288131
  H   -5.83388354810969     -0.37691423562449     -4.38928887126088
