27
Coordinates from ORCA-job 342optt
  C   -1.19809867301168     -0.05232096935078     -0.42202157063361
  C   -1.61711987376081     -0.15510333104500     -1.74720681994131
  C   -2.11807209723140      0.14463228761730      0.59453405328880
  C   -3.49811667736910      0.24622190572945      0.32766922152806
  C   -3.92290344482517      0.13763601554679     -1.02682210994774
  C   -2.96936448509372     -0.05874209853674     -2.03582942102302
  H   -0.14438847414046     -0.12550934639935     -0.17975150958713
  H   -0.89655525509913     -0.30762441865471     -2.54132349089284
  H   -1.77803035781985      0.22401464438515      1.61941338578818
  H   -3.31570082948490     -0.13597147280963     -3.06119338994412
  C   -4.48641505468047      0.44889677873946      1.35362862514458
  C   -5.31551678558908      0.24656088299040     -1.31402476675470
  C   -5.88665540524772      0.55143297032239      1.04487962167957
  C   -6.25649404528532      0.44083339367691     -0.32341587865644
  C   -3.98439829226796      0.49080982944354      2.67190043189210
  C   -6.92592112245988      0.72414429606401      2.03201623917316
  H   -5.63155111509319      0.22190428924363     -2.35001610577372
  C   -7.66808202617418      0.57470472240822     -0.74464860712458
  N   -3.48001532172803      0.51452916608759      3.71521689795443
  C   -6.85114615721320      0.97044701050380      3.35674504788630
  H   -7.93146117388800      0.62730919484342      1.63914954773164
  H   -5.92674888538807      1.08111917819309      3.90067840392744
  H   -7.76953317739524      1.06358455747731      3.92338673644069
  C   -8.25001577579621     -0.14262330473641     -1.70150791037937
  H   -8.25782500803287      1.33832560371544     -0.24826470230470
  H   -7.71796689233886     -0.93626096199766     -2.21273296233690
  H   -9.27788359358531      0.03809917654235     -1.99056896713481
