27
Coordinates from ORCA-job 343optt
  C   -1.01099612951029     -0.05797755035964     -0.15927872815704
  C   -1.41228186525244     -0.15415665172501     -1.48160134271390
  C   -1.94878564394585      0.13071242900543      0.87180534072484
  C   -3.32228203532293      0.26024035376261      0.56116579059223
  C   -3.74292831020551      0.09914867241740     -0.80960071190170
  C   -2.75416590570297     -0.09061224614726     -1.80416296843971
  H   0.03112397018838     -0.18598191759640      0.10208257885237
  H   -0.67412163350759     -0.31152940256487     -2.25983626931288
  C   -1.46179624977346      0.12489206726201      2.25690260374581
  H   -3.07790471106655     -0.19375681363267     -2.83354623945728
  C   -4.37072946438622      0.56431443255994      1.51157939556014
  C   -5.10722271685680      0.12646362230114     -1.15506767819996
  C   -5.71851318167469      0.56170456486330      1.11645867016577
  C   -6.11459504591785      0.33213048323062     -0.18983986998822
  C   -4.14997309183331      0.97087225969462      2.85444339992481
  H   -6.47099529636231      0.77219618498979      1.86849047956271
  H   -5.36963937386554     -0.01611702630904     -2.19599629667114
  C   -7.53421277229455      0.34158515101619     -0.50038585508955
  N   -4.06201162797464      1.32637763068826      3.95122876111106
  C   -8.10614264342084      0.13445728230877     -1.69382362095601
  H   -8.18265481138068      0.54127476254769      0.34968672428557
  H   -7.52256977231689     -0.07343337781572     -2.58162251668715
  H   -9.18164585360163      0.16690432244425     -1.80798227595248
  C   -0.26038530698881      0.53609806930116      2.66290982502454
  H   -2.13453039643903     -0.27528586391221      3.00584253051493
  H   0.44943058776680      0.98988728502341      1.98114128767030
  H   0.03189928164637      0.45407127664620      3.70160698579196
