27
Coordinates from ORCA-job 346optt
  C   -1.05215799975431     -0.06616013845255     -0.39994199772376
  C   -1.49521000677215     -0.15647550543611     -1.70710211882016
  C   -1.96976322027332      0.14086702772801      0.63122732740503
  C   -3.33399052077758      0.23523255966762      0.36755244025999
  C   -3.82061779993365      0.10234148798792     -0.98207635433808
  C   -2.85246603013263     -0.06254938177274     -2.02925640554944
  H   0.00655820438310     -0.12305220904455     -0.17941719486411
  H   -0.77588023163581     -0.25469458579103     -2.51170618827034
  H   -1.62762000845611      0.23555956276467      1.65501479838615
  C   -3.27444431690416     -0.08608969143642     -3.42407577818584
  C   -4.30895977301310      0.45286448008309      1.40858653846194
  C   -5.20539105033340      0.10932506091281     -1.21411607357332
  C   -5.67078065600006      0.50079439452930      1.11687302893676
  C   -6.14376619508707      0.32571576399270     -0.17663258314490
  C   -3.88123187617597      0.61297806317231      2.75147484712069
  H   -6.37468913722869      0.66812429761138      1.92469428723464
  H   -5.57301054015085     -0.08009455079664     -2.21202085714352
  C   -7.57755971519356      0.36402536888613     -0.40242604966955
  N   -3.52575182026217      0.74389111385355      3.84319822388604
  C   -8.22703513431231      0.22595490310995     -1.56684702218608
  H   -8.17175163442540      0.52445444206100      0.49455197228411
  H   -7.70655256673472      0.06671211995084     -2.50247401847564
  H   -9.30730501403979      0.27107246407157     -1.60738579791886
  C   -2.65568279637664     -0.70004963386386     -4.43869075019735
  H   -4.17930963558176      0.47120121110575     -3.65358291607827
  H   -1.77609556663686     -1.31392158272730     -4.28438475973901
  H   -3.02281495819085     -0.60902704216738     -5.45281659809710
