37
Coordinates from ORCA-job 348optt
  C   -0.03278342611883      0.07308963185468     -0.05957352512589
  C   -0.42973333541394      0.21924344971804     -1.38369950602464
  C   -0.95669797834184      0.03518963968759      0.98923034438705
  C   -2.34858668222410      0.11245433549884      0.70626721787468
  C   -2.74757612470273      0.31661832303307     -0.66160772426120
  C   -1.76817612621354      0.35367739612861     -1.67714323512875
  H   1.02316403110091     -0.00776330280814      0.15576562076627
  H   0.31264564099879      0.23948439146061     -2.17346892075120
  C   -0.43579103536961     -0.00827850990028      2.41747428628249
  H   -2.09958994305697      0.49215024397982     -2.70053014094361
  C   -3.42449458801267      0.01723673272824      1.68470822469330
  C   -4.11135837956560      0.49126622578803     -0.99232179706104
  C   -4.79302314293411      0.28514057725950      1.31884847258209
  C   -5.09764082758436      0.51220200875726     -0.00249428517771
  C   -3.24064565015681     -0.42596623356432      3.00980299022311
  C   -5.84648240933221      0.34235597378112      2.40705486676150
  H   -4.37453185383899      0.64887274056453     -2.03139946684754
  H   -6.12309215221090      0.70511009284300     -0.29224856922261
  N   -3.17967812384666     -0.78017213162852      4.11467756830518
  C   -5.67016477129312      1.60239595134600      3.26563560102379
  H   -4.66795970672863      1.64968613477624      3.69064106474307
  H   -6.39096671087150      1.61735040790172      4.08801936739999
  H   -5.82837840213941      2.49092634940491      2.64859750814808
  C   -7.28023132880307      0.27568378551336      1.89008257704403
  H   -5.69346708492953     -0.51894386671188      3.06542462445603
  H   -7.43639921925602     -0.59502522937028      1.25129930105287
  H   -7.53519197741194      1.16907377340143      1.31466087341141
  H   -7.97487070134550      0.21726670409241      2.73092046922446
  C   -0.67828647763649      1.34003979612681      3.10847491032910
  H   -0.04426909920580      2.10394301508356      2.64914683816270
  H   -0.44034879739676      1.27697269947606      4.17314695165650
  H   -1.71634206020731      1.65611614697998      3.01242213435133
  C   1.04097086013900     -0.37609872294576      2.55018939292534
  H   -0.98575767781916     -0.76738061033378      2.96956244698899
  H   1.29011939612637     -0.48411883184246      3.60796409814354
  H   1.69055379936103      0.39961090563938      2.13742410485080
  H   1.27075206624231     -1.31689999371947      2.04680531475633
