37
Coordinates from ORCA-job 353optt
  C   -0.29628338300665      0.81853762464417     -0.09550602237158
  C   -0.54462053951671      0.63114620415869     -1.45194985629527
  C   -1.35089975063219      0.81018327736047      0.81161360335204
  C   -2.67635726841810      0.61613027023579      0.39396153399639
  C   -2.93467891699075      0.42579359950379     -0.99674877459991
  C   -1.84518230761392      0.43768923078569     -1.89157388176927
  H   0.71622557704900      0.97190805941001      0.25811751129363
  H   0.27366687749738      0.63678302655723     -2.16278674602082
  H   -1.15416125140874      0.95696200380664      1.86695172564205
  H   -2.04707427039400      0.29217712744796     -2.94774146052715
  C   -3.79906350180101      0.60008872038119      1.30015079680557
  C   -4.27047885638854      0.24057817791931     -1.42798701035032
  C   -5.14007919091260      0.38386492145898      0.83420916538569
  C   -5.35394129295637      0.22318719845278     -0.53365229424600
  C   -3.50761656374768      0.81884928930551      2.65998599624747
  C   -6.28053966298960      0.32800683522477      1.83593147446342
  H   -4.43591215894837      0.12051206138236     -2.49028964223106
  C   -6.75034878917358     -0.02966569989733     -1.09309846937438
  N   -3.22663987119095      1.00923249196298      3.77042905325986
  C   -6.12507655878740     -0.80598304731400      2.85960833421167
  H   -5.96159147210494     -1.75802574010567      2.35055661597808
  H   -7.03213313832332     -0.88977227084571      3.46522437975451
  H   -5.28643509001403     -0.63366608050165      3.53247426746245
  C   -6.52167098019049      1.67260451376641      2.53621406860624
  H   -7.19370828724238      0.10421986373096      1.28735553731944
  H   -6.68979807670960      2.45824160003640      1.79698276310223
  H   -5.67151937074705      1.96118761098784      3.15349566261727
  H   -7.40249513999295      1.61115773631125      3.18204681335423
  C   -7.14753567437299     -1.49954657847732     -0.91444723087162
  H   -6.44237569545421     -2.13335290127217     -1.45751609375781
  H   -8.15302353598702     -1.69024126027432     -1.30193416488065
  H   -7.11669288598945     -1.79438478657073      0.13498792700571
  C   -6.91821499400580      0.36507690105709     -2.56064823885744
  H   -7.46065496981172      0.58486868812108     -0.53514658961072
  H   -6.37036979789011     -0.30892628385635     -3.22169759237011
  H   -6.56128681875880      1.37941341563230     -2.74230824516641
  H   -7.97345239207390      0.31044419947354     -2.83925491655750
