37
Coordinates from ORCA-job 356optt
  C   -0.46357938664366      0.15407587089467     -0.23715147730505
  C   -0.72999284399403     -0.05061106897844     -1.58702972814848
  C   -1.50214879096619      0.29152434398126      0.68266950011918
  C   -2.84281203011868      0.22861193386796      0.28547636417674
  C   -3.13715060781578      0.01873627466191     -1.10234653625154
  C   -2.05931435364722     -0.11568263788920     -1.99881656731275
  H   0.56565390061614      0.20795014178899      0.10235419398269
  C   0.39984587908365     -0.19480791338355     -2.58431418242743
  H   -1.27757747367838      0.45081743731294      1.73103740321857
  H   -2.29297617453665     -0.27348006441804     -3.04822926107525
  C   -3.94851963943144      0.36569262625936      1.19603923496835
  C   -4.49067955957433     -0.04318664768682     -1.52515081787355
  C   -5.28544838370695      0.29639570897811      0.72001153929043
  C   -5.55194892084439      0.09636816949413     -0.61905488856010
  C   -3.70330139974763      0.57002647760696      2.56833560895897
  H   -6.09274620894239      0.39997709229306      1.43580046782788
  H   -4.69922473643256     -0.19889315020544     -2.57860778588785
  C   -6.97853509676650     -0.00332258719512     -1.12284928053167
  N   -3.49544975476575      0.73845476436428      3.69691161199122
  C   -7.65960702277581     -1.28212726525373     -0.62858951530183
  H   -8.66391406925192     -1.38432247094139     -1.05039695180921
  H   -7.74646212892552     -1.26624976897957      0.45993853507022
  H   -7.07349473055549     -2.16024200363855     -0.90276720931680
  C   -7.81592720605469      1.22185304120856     -0.75323846495724
  H   -6.92631471647337     -0.05392231555030     -2.21500572565544
  H   -8.81892292348725      1.15474312983560     -1.18436667877991
  H   -7.34156768388096      2.13662373895914     -1.11059844918200
  H   -7.92131592054073      1.30359537305952      0.33030905229882
  C   0.38659750506900      0.92934822656564     -3.62329386784999
  H   -0.53146637907547      0.89015148959872     -4.21343637236671
  H   1.23451264628419      0.84277190334608     -4.30843841796446
  H   0.42705375397266      1.90480674926027     -3.13714870219368
  C   0.37676547869179     -1.55821193632359     -3.27970092168664
  H   1.33594418858866     -0.12067123875662     -2.02164492364589
  H   1.22602759715972     -1.66739201807447     -3.95986521274186
  H   -0.53995681660786     -1.67297092003129     -3.86193699116192
  H   0.40809400977602     -2.36596048603107     -2.54755458191572
