39
Coordinates from ORCA-job 366optt
  C   -1.05782045660875      0.17438581905990      0.15855704720826
  C   -1.57077696361621      0.25268064411859     -1.14139109082693
  C   -1.95104100518622      0.26028601895640      1.23219289337193
  C   -3.33158462607374      0.41915308238401      1.04981906001202
  C   -3.83988610325062      0.48887570352600     -0.28455524192999
  C   -2.92635663298627      0.40890573311036     -1.35357796434825
  C   0.39049817054491      0.02662286713793      0.38796702967966
  H   -0.89688681004912      0.22657243818707     -1.98926374108901
  H   -1.57745257775520      0.16883583999214      2.24476519843086
  H   -3.31097610769620      0.48189936152469     -2.36497397457662
  C   -4.26192322515974      0.49659998008399      2.14976452951902
  C   -5.23415444159985      0.63669245358024     -0.48421032272867
  C   -5.66394511108791      0.66546795593521      1.91509459872177
  C   -6.10092081848047      0.71984089672102      0.59417451176428
  C   -3.73560802330735      0.32175783642828      3.44737738391159
  C   -6.64426889012334      0.83384065379428      2.99567072983578
  H   -5.61323324351067      0.70860022095523     -1.49657538466268
  H   -7.15605156829279      0.88207254357336      0.40787624243491
  N   -3.25101132186853      0.18032195866878      4.48995904000212
  C   -6.35101694178852      1.54801549618318      4.16784102321540
  C   -7.93864630786113      0.30037918370510      2.87868654194421
  C   -8.89247682727662      0.48752464499860      3.86479809219419
  C   -7.30590971628195      1.73075060542009      5.15544727557941
  C   -8.58537063736058      1.20646038724080      5.01512060433415
  H   -7.04607723659351      2.29223208590657      6.04485509963346
  H   -9.32663981762843      1.34597389189478      5.79178883560513
  H   -5.36676870401533      1.97601144751547      4.29713752895623
  H   -8.18304107812158     -0.29208864916168      2.00588515067512
  H   -9.87851485164526      0.05469354193015      3.74278246527551
  C   1.00334553990054      0.55841548447722      1.53017543970651
  C   1.20983501672523     -0.65159721988060     -0.52417038268889
  C   2.57317692914387     -0.78240777605775     -0.31233432999790
  C   2.36607448355408      0.42340307360654      1.74537128324536
  C   3.16415107738355     -0.24533456967666      0.82539384040639
  H   4.22817406155322     -0.35132941342350      0.99459081105049
  H   3.17701044147601     -1.31970828835658     -1.03393702015327
  H   0.40021159871031      1.10077775478434      2.24671508001332
  H   2.80923494484881      0.85053672786083      2.63686051990824
  H   0.76069778138549     -1.10490041670444     -1.39881840363325
