39
Coordinates from ORCA-job 369optt
  C   -1.19030253749059      0.19248217975925      0.31568243805931
  C   -1.61083936099444      0.22959841219666     -1.01094432787500
  C   -2.12463742024365      0.23877285856071      1.33297815012596
  C   -3.50617065394802      0.30047644974841      1.06790611432868
  C   -3.94629465527016      0.26077645107403     -0.29164569550234
  C   -2.96439407534319      0.26781615747980     -1.29984151946440
  H   -0.13478214808097      0.14678573238052      0.55525578304951
  H   -0.88727646693017      0.23394291995821     -1.81700752298129
  H   -1.79765808425795      0.24095109805023      2.36549828989544
  H   -3.27599207365998      0.32319005196885     -2.33350741875741
  C   -4.46903950099339      0.41630377500748      2.13214591083329
  C   -5.36524567611496      0.28500785228739     -0.56932126431483
  C   -5.85818789559737      0.53758255989231      1.82914384529172
  C   -6.24723978255782      0.46343899265161      0.50168289707820
  C   -3.99518696817141      0.34550015638133      3.45889636122355
  C   -6.88495676110910      0.74700894702925      2.86335462594876
  C   -5.92355617952776      0.12799404297983     -1.91313202597070
  H   -7.30611158562880      0.53169478729238      0.28233660125024
  N   -3.56254665122012      0.28939027094184      4.53211516771075
  C   -6.66165451498819      1.57928902402908      3.96912478219796
  C   -8.14195739252021      0.13219427267371      2.76350446180045
  C   -9.13151711050540      0.35266422823784      3.70758373674189
  C   -7.65137452839390      1.79646437581185      4.91470014848038
  C   -8.89487388106869      1.18824648622092      4.79317243838275
  H   -7.44800583104734      2.44920270086812      5.75500395476046
  H   -9.66391424667030      1.35458965772410      5.53694375267064
  H   -5.70381730280166      2.06894277539201      4.07890834845442
  H   -8.32897602638211     -0.54709194956843      1.94130515250279
  H   -10.08886884141196     -0.14417402088761      3.60396998661956
  C   -5.43194059986539     -0.82164289556578     -2.82823373321899
  C   -7.03715678347155      0.88160029522108     -2.32790537392121
  C   -7.61949652538423      0.69886573010312     -3.57153102946711
  C   -6.01385528205936     -1.00228865385995     -4.07119969848979
  C   -7.11327928936116     -0.24262473937623     -4.46049606994402
  H   -5.61343896884815     -1.75522655566838     -4.74015177925262
  H   -7.56499704489188     -0.38278850106565     -5.43414385166425
  H   -4.59955801143665     -1.44768366712650     -2.53384983719445
  H   -7.43133518881088      1.63889479326809     -1.66149279894153
  H   -8.47049415294074      1.30747294792849     -3.85460900044671
