39
Coordinates from ORCA-job 370optt
  C   -1.71471079994138      0.18583782142928      0.18808643401240
  C   -2.15289545103567      0.08934267791803     -1.12859263340442
  C   -2.63472469325224      0.32652941231868      1.22059583406806
  C   -4.01423536650301      0.37131641001699      0.96923356432167
  C   -4.46608133144722      0.26776510260950     -0.38005136097701
  C   -3.51180647228940      0.13166461695595     -1.40394382559192
  H   -0.65576485208819      0.15215864869741      0.41381199113851
  H   -1.43826933167463     -0.01867457247514     -1.93584383784286
  H   -2.29021527380682      0.40108819175397      2.24494516328634
  H   -3.86324142593187      0.05716392595273     -2.42743964999439
  C   -5.00060867573699      0.50144792344502      2.01308639193133
  C   -5.86077089608077      0.31967671134488     -0.64295604395578
  C   -6.40002729645923      0.56066377985558      1.71648607739511
  C   -6.80350226218438      0.47500592107762      0.37848507720425
  C   -4.53375183078894      0.48969666568740      3.34495781645562
  C   -7.37687820796554      0.67873143069402      2.81785286934052
  H   -6.19477531893204      0.30953134227954     -1.67369539534245
  C   -8.22285250900630      0.61441260333936     -0.03890693084402
  N   -4.09904380497597      0.48853560131259      4.41899391753584
  C   -7.22982287277690      1.64791907910993      3.81725715436777
  C   -8.48179520680034     -0.17766226986596      2.90343069296231
  C   -9.41610528088022     -0.04847664636450      3.91879009122513
  C   -8.16263426611663      1.77684611060571      4.83461815072550
  C   -9.26626645288913      0.93365502293953      4.89038709267298
  H   -8.02571239527263      2.54137659325058      5.58968285243316
  H   -9.99344498348718      1.03368939084738      5.68650372038789
  H   -6.37496857109137      2.31107065994303      3.78442882811592
  H   -8.60225086345409     -0.95123138573505      2.15555202823498
  H   -10.26234077174475     -0.72393136809378      3.95557387763703
  C   -8.78572406471293     -0.29480082151494     -0.93724644689904
  C   -9.02004447456967      1.67403289236759      0.40317579424521
  C   -10.33266460887249      1.80728033675887     -0.02191779150686
  C   -10.10080772609829     -0.16504791240069     -1.36334602967285
  C   -10.88367711920823      0.88629427011329     -0.90532942575601
  H   -10.51674947638009     -0.89167636865706     -2.05102285569652
  H   -11.91032583961569      0.98903456062937     -1.23410907458671
  H   -8.17849949626170     -1.12079284301475     -1.28762842074771
  H   -8.59797342386415      2.39321508099592      1.09371704058353
  H   -10.92947630580234      2.63630140387208      0.33844726253744
