39
Coordinates from ORCA-job 372optt
  C   -1.39851946609725      0.14602637335035      0.11477876379175
  C   -1.81482361544547      0.18729619017526     -1.22797522769961
  C   -2.39844226071395      0.19170002522083      1.10241119555291
  C   -3.75087393748878      0.26727477565224      0.78819925846975
  C   -4.16758417748998      0.29911058264543     -0.58454526091665
  C   -3.14227076442876      0.26503335341981     -1.57038246001431
  C   0.02301908224038      0.08156081932616      0.46464126832941
  H   -1.07051916162354      0.19519434539379     -2.01567608629070
  H   -2.12326610073334      0.13428381624675      2.14897717772198
  H   -3.43068448795474      0.31401417450665     -2.61441028631372
  C   -4.79717265018006      0.30874454239335      1.78409436730520
  C   -5.52457779638144      0.37024581153606     -0.91190605139336
  C   -6.14022018536702      0.38593112105425      1.41209107917711
  C   -6.53453647339325      0.41830012793971      0.08029182689466
  C   -4.45996242209911      0.26554688524291      3.16010544228736
  H   -5.79300388939313      0.43092671067582     -1.95964984665700
  C   -7.95672432247233      0.46691522356998     -0.27844570611957
  N   -4.17096047601454      0.23630606136525      4.27869771893445
  C   -8.41925054517993     -0.05964435330854     -1.49488497262939
  C   -8.91517680393225      1.04899296369904      0.56691058346792
  C   -10.25579701866866      1.08726329305510      0.22471814299110
  C   -9.76138366640699     -0.01577228243453     -1.83972489014132
  C   -10.69480769507114      0.55560005163930     -0.98431848634916
  H   -10.08238135046406     -0.44091021089261     -2.78348070361218
  H   -11.74232668556365      0.59147694546524     -1.25467843072558
  H   -7.71415477276068     -0.53577678201115     -2.16364483226767
  H   -8.59337972630883      1.50242533935206      1.49570028875149
  H   -10.96451997986285      1.55025571913522      0.90110171574312
  H   -6.88591453229827      0.38086924395045      2.19730284280465
  C   0.50076372323798      0.58134049000215      1.68765247880492
  C   0.97161482330461     -0.48695782187683     -0.40193236555272
  C   2.31520771163092     -0.54237034352243     -0.07183225398162
  C   1.84428863763761      0.51946700335191      2.01950449901970
  C   2.76773399771413     -0.04016332649750      1.14387630456200
  H   3.81716667783234     -0.08825987025451      1.40468669914179
  H   3.01506623659656     -0.99616956382390     -0.76376011976396
  H   -0.19373222783088      1.04589380472678      2.37530868791378
  H   2.17508382828708      0.92092278557574      2.97003797334909
  H   0.64039247314338     -0.91868402504561     -1.33767033458567
