39
Coordinates from ORCA-job 373optt
  C   -1.82749025337760     -0.06595811218112      0.02647715268117
  C   -2.21394098986718     -0.08020095690247     -1.31616274123463
  C   -2.77377707107500      0.06233436742775      1.03453979610160
  C   -4.13778230402774      0.18857185369834      0.74498270648034
  C   -4.55976385670597      0.17354936429803     -0.62396168245654
  C   -3.57139351293120      0.03854510487608     -1.62009425534908
  H   -0.78435408209370     -0.19303719875822      0.28878419647687
  C   -1.20841423763946     -0.23603378518341     -2.38503973864955
  H   -2.46023664762368      0.05890264954430      2.07182887430437
  H   -3.88940642821605      0.06412020512715     -2.65648534269496
  C   -5.14881434350453      0.33578544555779      1.75395674100093
  C   -5.93337001223766      0.30683362406557     -0.93287981950301
  C   -6.50432965165488      0.46781821886433      1.40157388620533
  C   -6.90911421212932      0.45558793006564      0.07709288547875
  C   -4.78001387102567      0.33932835712338      3.12036485181641
  H   -6.22188920121417      0.34102842101198     -1.97603431263399
  C   -8.33871589442766      0.56128003298263     -0.26114373219746
  N   -4.46820432989209      0.34632595320766      4.23425322851262
  C   -8.85415463724190     -0.03111262660160     -1.42243483016103
  C   -9.23990362807375      1.26306696333417      0.55230301469139
  C   -10.58446147129805      1.35224888591985      0.23280376414520
  C   -10.19978110192081      0.06227817808662     -1.74572065574973
  C   -11.07853977148997      0.75245137122061     -0.92133547190214
  H   -10.56602094022699     -0.41573085786145     -2.64666403185625
  H   -12.12841374059805      0.82740301246690     -1.17465082305719
  H   -8.18830053997157     -0.59538493180475     -2.06235066747905
  H   -8.86865306124868      1.76577134407079      1.43626535082447
  H   -11.25125302291388      1.90659326539783      0.88249178497247
  H   -7.23642381084978      0.53832665875849      2.19563693717939
  C   0.08351329486499      0.28717141621382     -2.25203877323241
  C   -1.51082519688940     -0.91028922983057     -3.57432351243531
  C   1.02957254015892      0.13668419307169     -3.25385605094385
  C   -0.56705650507958     -1.05737711639580     -4.57969698859091
  C   0.71166072099053     -0.53662753506472     -4.42763106372651
  H   2.01884003829092      0.55853060240411     -3.12272495515616
  H   1.44880037949588     -0.65117841103472     -5.21217806221348
  H   0.33555409334470      0.83988433282318     -1.35582699929953
  H   -2.49530799747681     -1.34415289529151     -3.69455575110055
  H   -0.82983474222293     -1.59108809470836     -5.48523490924797
