39
Coordinates from ORCA-job 374optt
  C   -1.90714763939115      0.10356058520432      0.00811686024024
  C   -2.34041049496217      0.00154585601448     -1.30230801888239
  C   -2.84172252303708      0.23166642799977      1.03535820120625
  C   -4.20627065351255      0.29046777308408      0.75937711617712
  C   -4.67526905588587      0.21628319120500     -0.59927027674826
  C   -3.69904221063307      0.02344005669749     -1.62985364056651
  H   -0.84969773041868      0.06020698782940      0.23624676605233
  H   -1.61699112762185     -0.14694304552010     -2.09602773417140
  H   -2.51459935490994      0.29676941572012      2.06619602336990
  C   -4.07495491723852     -0.17682303546798     -3.04274122543207
  C   -5.19726426214868      0.44313795244145      1.79745054164301
  C   -6.04902187511830      0.38465171742923     -0.85541661011272
  C   -6.55522778958797      0.56750793083755      1.49042709899930
  C   -7.00047854787349      0.55567753636734      0.17823552040219
  C   -4.79104680582977      0.46550542878006      3.15467989518775
  H   -6.37955429840411      0.45110927190695     -1.88116215141616
  C   -8.43219536957498      0.67964241359067     -0.12911375508293
  N   -4.45010192855071      0.48664118084550      4.25921828995541
  C   -8.97244764894841      0.13700599225504     -1.30541749988734
  C   -9.31894644404061      1.35096547973855      0.72740441494187
  C   -10.66801574013798      1.45666231709458      0.43578649146194
  C   -10.32272184184625      0.24938179070721     -1.60065924426363
  C   -11.18551284816029      0.90655064900554     -0.73323129205014
  H   -10.70525001617584     -0.18788821216524     -2.51540705171276
  H   -12.23917636118431      0.99547201927610     -0.96503325554662
  H   -8.32330437890966     -0.40126190418018     -1.98432779034074
  H   -8.93340702121763      1.81898284428344      1.62411913939524
  H   -11.32075012826619      1.98630076740472      1.11956761308723
  H   -7.26073667747518      0.64284862017731      2.30813408923576
  C   -3.38236441246841      0.47929310345508     -4.06789149145849
  C   -5.08455644480758     -1.07264960583214     -3.42169538677485
  C   -3.67892480463622      0.25120481800854     -5.40451337306913
  C   -5.38112801606642     -1.30273749227709     -4.75493573610677
  C   -4.68195872990659     -0.64012565049822     -5.75926482838290
  H   -3.12907669804375      0.78190500534976     -6.17275153230902
  H   -4.91876792376765     -0.81573015434638     -6.80099356162949
  H   -2.60940079881179      1.18984606804084     -3.80123986343056
  H   -5.62530647102920     -1.60358104496117     -2.64790131047134
  H   -6.15949000940082     -2.01050305550161     -5.01427143150928
