19
Coordinates from ORCA-job 379optt
  C   -1.69998152519299      0.10707587270557      0.22342238449421
  C   -2.12491436492916      0.05263456306945     -1.10120327683363
  C   -2.62715128338880      0.26127165001575      1.24690066566753
  C   -4.00184252039885      0.36627228101640      0.98265312791800
  C   -4.46184996809771      0.31306112591929     -0.37373396803754
  C   -3.47536392580793      0.15578140469000     -1.35656511473820
  H   -0.64499348891411      0.02874768582455      0.45393359526592
  H   -1.43452466566355     -0.06688053705654     -1.92575896809483
  H   -2.29501752778907      0.30344103361769      2.27712353558660
  F   -3.88751368442773      0.10121059170197     -2.65398193342414
  C   -4.99045020809269      0.52759778318939      2.01672354917523
  C   -5.84411699123126      0.41628361071937     -0.67622860097382
  C   -6.36904291895493      0.62713544328838      1.67883735960887
  C   -6.77141000050478      0.57157552609391      0.36554148019535
  C   -4.58903898550404      0.58828377153826      3.36511149720320
  H   -6.16363227035408      0.37298778022700     -1.70717519116150
  N   -4.25307056229726      0.63769938880787      4.47427403535868
  H   -7.09373914746710      0.74727094543716      2.47387123964036
  H   -7.82709596098388      0.64956007919450      0.13171458314974
