13
Coordinates from ORCA-job 37optt
  C   -2.98935602502690      0.49690492555060     -0.00000004095602
  C   -2.85958760928615     -0.85458101557750     -0.00000009406303
  C   -1.89375454548700      1.40115029402006      0.00000011322198
  C   -0.57893832220409      0.79178887543320      0.00000011060981
  C   -0.47864551130514     -0.57102757170946     -0.00000002911069
  C   -1.55843826969532     -1.44899621635516      0.00000011509218
  H   0.31150370811032      1.40307800434369     -0.00000051034078
  F   0.77251949795288     -1.11644756346789     -0.00000037739220
  F   -4.23497509161458      1.03560733140555     -0.00000065439202
  C   -2.07284089134520      2.78605445568605      0.00000031748025
  H   -3.75581414028473     -1.46078240974350     -0.00000013538932
  H   -1.40619576188037     -2.51699145673704      0.00000077424653
  N   -2.18418703793369      3.94551234715142      0.00000041099331
