19
Coordinates from ORCA-job 380optt
  C   -1.70304376091346      0.10556400851741      0.20229388399804
  C   -2.13698844438524      0.05286853471528     -1.11379905018638
  C   -2.62873789822387      0.26050219936654      1.23930730810802
  C   -3.99958814372885      0.36606726114136      0.98506976730477
  C   -4.44504087718466      0.31097967946335     -0.38037240948767
  C   -3.49279223964513      0.15358999761078     -1.41063622624342
  H   -0.64738036760935      0.02716776577705      0.43214561190544
  H   -1.41971405650718     -0.06707098132570     -1.91764480140728
  H   -2.28927020496067      0.30177333951436      2.26752434792186
  H   -3.83891410340121      0.11333159872361     -2.43464943339178
  C   -4.98980394685749      0.52799783215116      2.02083357601475
  C   -5.82378550796810      0.41849435640613     -0.61753623116109
  C   -6.36614145512049      0.62813519448374      1.69638876882509
  C   -6.77909585409514      0.57342770436706      0.38493866270055
  C   -4.58522440868838      0.58873358923426      3.37041855049726
  F   -6.25040281805663      0.36552118119997     -1.91557766677455
  N   -4.24611655469442      0.63799448564821      4.47757758870876
  H   -7.08812378739789      0.74816304236903      2.49315154353484
  H   -7.82460557056172      0.64776921063638      0.11601620913280
