19
Coordinates from ORCA-job 385optt
  C   -1.69897740199124      0.10605555178646      0.21576055151179
  C   -2.16150561223081      0.05710966312038     -1.08524549239938
  C   -2.64453747158249      0.26142476573301      1.23473739102911
  C   -4.00763024773678      0.36530670028596      0.96612863250037
  C   -4.46582673467634      0.31147390644839     -0.39752468657325
  C   -3.49056070648606      0.15288093522762     -1.41674695763999
  H   -0.64055939140624      0.02571511473527      0.41907284018444
  F   -1.25300901260184     -0.09327759688340     -2.08754639230523
  H   -2.31402046444678      0.30381543326195      2.26559944921249
  H   -3.78956218675741      0.10705372279441     -2.45627025998126
  C   -4.99735706446560      0.52812285277025      2.01390815570360
  C   -5.83753419708146      0.41481018924351     -0.68187629773086
  C   -6.34993602697518      0.62354581079202      1.64623056399275
  C   -6.78521910682503      0.57198036970694      0.35390863896920
  C   -4.60833148162257      0.59015686882777      3.36456469668069
  H   -6.16679305136937      0.37220047040278     -1.71224157608703
  N   -4.23951844652969      0.63612585023694      4.46163525908318
  F   -7.25901580200377      0.77407713836718      2.63806605785173
  H   -7.84488559321126      0.65243225314256      0.15328942599763
