19
Coordinates from ORCA-job 389optt
  C   -1.67851605987400      0.09931247456502      0.14679073155904
  C   -2.13467856284296      0.05081838093696     -1.16621714581658
  C   -2.60437189183313      0.25057477338995      1.16171204551950
  C   -3.98498203160706      0.36251093066108      0.96806739136029
  C   -4.43690976400430      0.30876585694748     -0.39496980127635
  C   -3.48938803832274      0.15319355244344     -1.42790535866269
  H   -0.63011175332350      0.02300687768448      0.40078763323199
  H   -1.42874925467059     -0.06701579360210     -1.97911566006111
  F   -2.13009188653378      0.29139226887045      2.42760124171861
  H   -3.85035553383716      0.11523106591858     -2.44908594766479
  C   -4.94915100971476      0.52390452177505      2.02418688717852
  C   -5.82473305327700      0.41305901396619     -0.67590249416773
  C   -6.33712067909846      0.62448048463449      1.69218260969299
  C   -6.71160786684690      0.56630034887261      0.38107610696341
  C   -4.61740877241687      0.59662353060404      3.39322709202613
  H   -6.18875155561558      0.37437323153819     -1.69287949011386
  N   -4.44297131573557      0.66508784336331      4.53687159611229
  H   -7.07896868214231      0.74528196726842      2.46807167936425
  F   -8.03589228830326      0.66410867016237      0.08095088303604
