13
Coordinates from ORCA-job 38optt
  C   -2.97187406252681      0.50875960849214     -0.00000036440623
  C   -2.85236497276821     -0.84548295829417     -0.00000014258743
  C   -1.87704746616634      1.41120391099936     -0.00000034287298
  C   -0.55614950860922      0.80265442929297     -0.00000019916135
  C   -0.42030767989788     -0.57465062792629     -0.00000015497431
  C   -1.53576575145280     -1.38665719173134      0.00000028164059
  H   0.31497875742825      1.44147852324511     -0.00000035851523
  H   0.56308962009168     -1.03010020331675     -0.00000002322359
  F   -4.21499207687114      1.04356931385347     -0.00000037790217
  C   -2.06639972133663      2.79455966195279      0.00000019204058
  H   -3.72866142372758     -1.47722907171070      0.00000018167512
  F   -1.40383455978926     -2.75131829319577      0.00000055980913
  N   -2.17940115437404      3.95446289833919      0.00000074847791
