19
Coordinates from ORCA-job 390optt
  C   -1.74524501217837      0.10839130182634      0.19332010780201
  C   -2.13754082348368      0.05236629934686     -1.12833357700634
  C   -2.63336346356508      0.26074035504573      1.23599834062128
  C   -4.01234677077863      0.36617156134530      0.97131609473220
  C   -4.45748556752206      0.31088308756771     -0.39329631540824
  C   -3.49990392976917      0.15521279214703     -1.40521387990074
  F   -0.41998541403604      0.00863354321864      0.48152188758329
  H   -1.39853166566789     -0.06729488236298     -1.90865416457376
  H   -2.26555462059029      0.29865462053413      2.25338641098637
  H   -3.83914803828936      0.11437847845722     -2.43396435674632
  C   -4.98619495110004      0.52642469895743      2.00689475417528
  C   -5.85316484109832      0.41574677007397     -0.67826162445493
  C   -6.37504986126338      0.62827862062900      1.68933908174419
  C   -6.74150489153156      0.56893553370124      0.37073354183664
  C   -4.57006413750522      0.58631213048601      3.35181404782702
  H   -6.21605576598520      0.37687744258321     -1.69604749778179
  N   -4.21877207198017      0.63487439978452      4.45525141407050
  H   -7.11931276646137      0.74862930167241      2.46254044435771
  F   -8.06553540719409      0.66679394498625      0.06711529013562
