19
Coordinates from ORCA-job 391optt
  C   -1.69651238039123      0.10726236373899      0.22306571692741
  C   -2.15912673291519      0.05758852332238     -1.07568657518701
  C   -2.63466135181478      0.26167536583435      1.24328228811258
  C   -4.00548206835482      0.36559139653243      0.98129005633316
  C   -4.45747381272015      0.31081108320428     -0.38165468103566
  C   -3.49368116465073      0.15331541076114     -1.40039304886121
  H   -0.63720042559314      0.02773357022599      0.42412107181077
  F   -1.25593266427653     -0.09243300020326     -2.08212082901696
  H   -2.29978663181696      0.30419458659789      2.27263016734737
  H   -3.79699366418302      0.10748963158822     -2.43865460068203
  C   -4.98887237109211      0.52707433559760      2.02421192019572
  C   -5.84018822731831      0.41507919597938     -0.66934323436379
  C   -6.37173402857190      0.62915253129576      1.69860798103184
  C   -6.73570226594041      0.57020501091764      0.38345911901652
  C   -4.57789218951303      0.58640768112949      3.36775562568764
  H   -6.20303305576279      0.37659535713459     -1.68706474315772
  N   -4.22324478312360      0.63392592674055      4.47139659929167
  H   -7.11954449810485      0.75050248564018      2.46889868314501
  F   -8.05771768385633      0.66884854396239      0.07165848340469
