19
Coordinates from ORCA-job 392optt
  C   -1.69048207278037      0.10729989484169      0.22702224262818
  C   -2.11448256054695      0.05186190413712     -1.09885699881634
  C   -2.61293599205024      0.26070538209394      1.24986156702190
  C   -3.99125661904707      0.36512734939721      0.98772467471151
  C   -4.44660227497734      0.31100283193333     -0.36886846320822
  C   -3.46542393961783      0.15424304742372     -1.35224625886348
  H   -0.63526878307721      0.02996420960521      0.45699669728991
  H   -1.42456969749279     -0.06733648571042     -1.92341065609001
  H   -2.27951299906844      0.30343939655755      2.27945446033259
  F   -3.88105924901324      0.09977108563233     -2.64671944260128
  C   -4.97304774776882      0.52565469095211      2.02317701858503
  C   -5.83213530209660      0.41411902428355     -0.67927348754999
  C   -6.35921472808862      0.62750440452322      1.69193078997098
  C   -6.72161566307935      0.56849580174562      0.37427597253234
  C   -4.56664939234593      0.58521823430749      3.36879256565033
  H   -6.18354903031697      0.37453712409660     -1.69832273533865
  N   -4.22385117552609      0.63343722207019      4.47593025885828
  H   -7.10904158076410      0.74846341445324      2.46003295768892
  F   -8.04408119234198      0.66749146765633      0.06795883719799
