19
Coordinates from ORCA-job 393optt
  C   -1.69437285366379      0.10580511825722      0.20634678315312
  C   -2.12722728043085      0.05168564585550     -1.11144027982306
  C   -2.61415611673980      0.26005940937628      1.24146199161727
  C   -3.99039692645013      0.36530161312366      0.99043031556702
  C   -4.43058074921564      0.30941615029760     -0.37464402439429
  C   -3.48410321075387      0.15214995612455     -1.40312287985970
  H   -0.63845391987961      0.02835988022797      0.43574872605427
  H   -1.41153021347991     -0.06840040846930     -1.91597976492502
  H   -2.27323700098351      0.30202863823723      2.26901568326300
  H   -3.83320012671939      0.11143324908437     -2.42629388986869
  C   -4.97167389181739      0.52608437108512      2.02745032849159
  C   -5.81350082273966      0.41681150361316     -0.62933776403385
  C   -6.35838732281409      0.62795566738009      1.70898202708530
  C   -6.73732903163473      0.57104130721837      0.39565183081950
  C   -4.56121152732663      0.58595886219244      3.37309386704633
  F   -6.25056919394887      0.36716378144955     -1.91423912963072
  N   -4.21449176872667      0.63428880105505      4.47837007515855
  H   -7.10473530170105      0.74791924382610      2.48047999137570
  F   -8.04560274097432      0.66593721006504      0.06348611290364
