19
Coordinates from ORCA-job 401optt
  C   -1.68872562735635      0.10489988406464      0.19569009474236
  C   -2.11093216802115      0.04965162823740     -1.12803948560944
  C   -2.62367240798245      0.25949513751244      1.21549582252522
  C   -3.99362108747807      0.36290770598424      0.94434406286258
  C   -4.43475435974215      0.30704938937923     -0.41808670664320
  C   -3.46134796536640      0.14925525408636     -1.42605211114466
  H   -0.63577978741566      0.02820056448771      0.43779589825958
  H   -1.38808160050984     -0.07065539032386     -1.92663056071162
  H   -2.29624086859260      0.30287978791021      2.24747606458737
  H   -3.79523589444974      0.10657940288619     -2.45731747499480
  C   -4.97974882400720      0.52478251194659      1.99028952335683
  C   -5.81865730712213      0.41069936880530     -0.70983174742481
  C   -6.34774699841713      0.62211282059906      1.62504444673533
  C   -6.75815658901026      0.56716221787312      0.31797086116866
  C   -4.56037142844375      0.58137094689381      3.33179738725081
  H   -6.14518393079648      0.36724140547864     -1.74122407997558
  N   -4.16146219841583      0.62231698598075      4.41930827082544
  Cl  -7.54103959894082      0.81874522508498      2.88257248614020
  H   -7.81403135793188      0.64630515311319      0.09485724804971
