19
Coordinates from ORCA-job 403optt
  C   -1.74712377125298      0.10862631307874      0.17248119849809
  C   -2.14997740352609      0.05142234482625     -1.14974025176368
  C   -2.65656706654915      0.26209088477128      1.21042323854805
  C   -4.02712140082507      0.36526983723591      0.93724171556624
  C   -4.47344438341529      0.30980411055313     -0.42502738126258
  C   -3.50455617625214      0.15192901093389     -1.43584268784041
  Cl  -0.04270544363584     -0.01516415631169      0.54970120844856
  H   -1.41758981954087     -0.06887226880014     -1.93646990577868
  H   -2.30835415272275      0.30308811937149      2.23409260613670
  H   -3.83709132996982      0.10880381928098     -2.46668346090045
  C   -5.00661999233604      0.52651191884565      1.98281041499028
  C   -5.85694822650085      0.41412733852901     -0.70937262003447
  C   -6.37683628496112      0.62503569844198      1.62596674397300
  C   -6.79285990992866      0.57085984033160      0.32097452871404
  C   -4.58128150974250      0.58190897230000      3.32428997100444
  H   -6.18731947666628      0.37117164787610     -1.73938207695884
  N   -4.17883545135826      0.62198001619805      4.40916059889744
  Cl  -7.56038282342771      0.82172106188931      2.88962313934786
  H   -7.84915537738849      0.65069549064845      0.10121302041439
