19
Coordinates from ORCA-job 404optt
  C   -1.70571046617968      0.10869815391729      0.23005829088586
  C   -2.14835819292956      0.05641724457093     -1.07982119925054
  C   -2.65025968738004      0.26394595486801      1.24442758402081
  C   -4.01784482509245      0.36718346959806      0.97138122906932
  C   -4.45904411901716      0.31122703973678     -0.39271643900147
  C   -3.48742360615350      0.15320847025679     -1.40535431730272
  H   -0.65136493780787      0.03055290702400      0.45482917093110
  Cl  -0.97706671997643     -0.13885154512019     -2.36946148561780
  H   -2.32042229685371      0.30699572342196      2.27519792597620
  H   -3.79861337683818      0.10809268472425     -2.44092864443767
  C   -5.00667439916168      0.52890397996631      2.01219786839336
  C   -5.83714961874764      0.41410696794709     -0.68623707602691
  C   -6.37234126494662      0.62580134503420      1.64677072613837
  C   -6.78075977094944      0.57063483219112      0.33968098407305
  C   -4.58914083735037      0.58578121386703      3.35587643513734
  H   -6.16150394664357      0.37038550579426     -1.71799392587857
  N   -4.19019636168536      0.62672218596797      4.44224739706396
  Cl  -7.56532262083302      0.82198014598083      2.90225096810534
  H   -7.83555295145367      0.64922372025328      0.11305450772092
