19
Coordinates from ORCA-job 405optt
  C   -1.67973494590930      0.10608257408682      0.24763660932087
  C   -2.08292163436703      0.05078096494059     -1.07780596259923
  C   -2.62445884052259      0.26081106992768      1.25769719777593
  C   -3.98998665340904      0.36365617581829      0.96952646571227
  C   -4.43664503924334      0.30864108092501     -0.39648388848071
  C   -3.43242119258319      0.15144884760309     -1.37578858839723
  H   -0.62850828672254      0.02888654723747      0.49425945425611
  H   -1.36722530310167     -0.06849515651784     -1.87991105156053
  H   -2.30916992958609      0.30489258169646      2.29254042266673
  Cl  -3.89492978937488      0.07855878035164     -3.06330847896623
  C   -4.97822140420003      0.52628749809125      2.00950526875259
  C   -5.81603217785329      0.41129496873285     -0.68646753056665
  C   -6.34497517966612      0.62315724121282      1.65012166054800
  C   -6.75402287479730      0.56742134800611      0.34470278190005
  C   -4.55913614905381      0.58540617603269      3.35325620003345
  H   -6.14996371642657      0.36855212667984     -1.71174719532814
  N   -4.16373517552135      0.62871767435801      4.44057225103996
  Cl  -7.53378696070129      0.81962082271875      2.90878766674432
  H   -7.80889474696047      0.64528867809848      0.11836671714844
