19
Coordinates from ORCA-job 411optt
  C   -1.66580094775729      0.10374678363510      0.25943037306328
  C   -2.08039184827126      0.05122691292375     -1.06276616751329
  C   -2.60067870492730      0.25848255021105      1.27674702926008
  C   -3.96978050740476      0.36395293941735      1.00002659396091
  C   -4.42668564476254      0.31104720392482     -0.36266992171508
  C   -3.43310467869688      0.15450110872517     -1.35029826572176
  H   -0.61240981584027      0.02414322107299      0.49614162874945
  H   -1.37190709788839     -0.06798054418574     -1.87113895845276
  H   -2.27774528657996      0.30064818552429      2.30962368581326
  Cl  -3.90925635200078      0.08541009015192     -3.03302779960578
  C   -4.95421702143746      0.52656133511219      2.03566365108053
  C   -5.81009204245248      0.41450398284589     -0.64976118015008
  C   -6.33354258462245      0.62608074661022      1.71827114875976
  C   -6.71327004682070      0.56749847014531      0.40505851645560
  C   -4.54626426579915      0.58988277636592      3.38424775250887
  H   -6.16445787661488      0.37511256701472     -1.66704781190320
  N   -4.20168051122396      0.64132075712847      4.48887557008181
  H   -7.06596919816990      0.74606164554414      2.50325113843688
  Cl  -8.41753556872952      0.68878926783244      0.01484301689148
