19
Coordinates from ORCA-job 412optt
  C   -1.66473352378580      0.10410315157150      0.23263012512679
  C   -2.09732031066544      0.05103663757701     -1.08489000543279
  C   -2.59281859544203      0.25829929987663      1.25581395574693
  C   -3.96499567216308      0.36312762883983      0.99401883356795
  C   -4.41496494432988      0.30873174844746     -0.36715555022118
  C   -3.45086291953961      0.15171396044410     -1.38061286627849
  H   -0.61032784969169      0.02627153418990      0.46756110683024
  H   -1.38252396526350     -0.06892859538388     -1.89016808670925
  H   -2.26297405033415      0.30104671046725      2.28699839367157
  H   -3.77950758933453      0.10943445126139     -2.40915170580365
  C   -4.93744070003605      0.52442464727100      2.04204747260438
  C   -5.81268990463900      0.41610551946005     -0.62939993404612
  C   -6.31486411829954      0.62510762731625      1.73068206870022
  C   -6.72752258169615      0.57115571707947      0.42515583726043
  C   -4.52187717950931      0.58494912486818      3.38719059763135
  Cl  -6.37198372201851      0.35550273191812     -2.27167801181510
  N   -4.16992592981893      0.63404141053192      4.48999562878414
  H   -7.04314595120827      0.74481689192098      2.51949379436745
  Cl  -8.43429049222446      0.70006980234284      0.09693834601511
