20
Coordinates from ORCA-job 414optt
  C   -1.74121389363200      0.10757722006563      0.18868865195586
  C   -2.16098916112886      0.05389191154015     -1.13102244191731
  C   -2.65207890764343      0.26112871549573      1.22320932510623
  C   -4.02784513255095      0.36682153695210      0.96062018042386
  C   -4.48361296683714      0.31302642284830     -0.40178996710242
  C   -3.52506786912315      0.15694502099991     -1.41232533662697
  O   -0.40495440305811      0.01056860762666      0.52518066199438
  H   -1.43666363813959     -0.06638638264079     -1.93075905219954
  H   -2.28929860789873      0.29935237754454      2.24281338810330
  H   -3.86218814729245      0.11579411461688     -2.44233925557581
  C   -5.00515134141086      0.52764076347996      1.99651950397179
  C   -5.87947430919243      0.41908551206883     -0.67526436493229
  C   -6.38904361787979      0.62869069031557      1.67755360218757
  C   -6.80013053558352      0.57346454628004      0.36363804157053
  C   -4.59260136014234      0.58800305232425      3.34415653266450
  H   -6.21207452732970      0.37693616823580     -1.70568259434461
  N   -4.25311742145859      0.63791388505903      4.45134120358113
  H   -7.10522968434836      0.74872251355254      2.47982400992418
  H   -7.85731943017957      0.65157998699926      0.13508262320603
  H   0.09649495482964     -0.08960666336445     -0.28817471199043
