20
Coordinates from ORCA-job 416optt
  C   -1.70256654469848      0.10686907291876      0.23778112133725
  C   -2.12995509659629      0.05311413883640     -1.08679214240764
  C   -2.62682967053371      0.26124558128106      1.25968747197871
  C   -4.00135980268578      0.36611883876461      0.98704325811759
  C   -4.45694738680151      0.31244058425323     -0.36846416310284
  C   -3.48160418725832      0.15502930835583     -1.37267212060879
  H   -0.64677027416071      0.02778585167973      0.46595578532552
  H   -1.41561581113649     -0.06744237756554     -1.89608585162206
  H   -2.29733070048489      0.30380876995532      2.29060631606385
  O   -3.93896295594928      0.10622590335186     -2.67639425655264
  C   -4.98910515295560      0.52835498955284      2.02278228687320
  C   -5.84201012580528      0.41570277982523     -0.66882563570259
  C   -6.36924387080503      0.62737046752352      1.68555716896123
  C   -6.76999683363352      0.57084846056704      0.37202679447790
  C   -4.58784796754074      0.59055724779518      3.37029636323714
  H   -6.16111969690196      0.37178735780047     -1.69953822740228
  N   -4.25352820012866      0.64178320980633      4.48056391953078
  H   -7.09401621996247      0.74766422139925      2.48065104102112
  H   -7.82583997787207      0.64804986798624      0.13734938867738
  H   -3.17672952408915     -0.00054427408735     -3.25093851820281
