20
Coordinates from ORCA-job 419optt
  C   -1.68132302446275      0.10273610789857      0.17929850329221
  C   -2.11828071949530      0.04960790461535     -1.14206221892277
  C   -2.61396605821533      0.25725413323662      1.20510119086872
  C   -3.98114175069970      0.36136267316390      0.94297525721600
  C   -4.44122325483219      0.30781015834388     -0.41644190477263
  C   -3.46715552511492      0.14966748227819     -1.43357668811927
  H   -0.62664001335505      0.02501921959031      0.41236224615784
  H   -1.40103832361075     -0.07027966433451     -1.94638036749370
  H   -2.27952942942559      0.29941024283773      2.23595991771540
  H   -3.80555670734705      0.10799445853220     -2.46354005268479
  C   -4.96763626443367      0.52332135899601      1.98770007448571
  C   -5.81913178001737      0.41208018460326     -0.68960647526189
  C   -6.34509308097499      0.62316137847293      1.65236200140175
  C   -6.76326240323739      0.56918017181125      0.34889069617909
  C   -4.61027919489545      0.58699362730138      3.34175129131355
  H   -6.15248184603452      0.36969344728197     -1.71941757436267
  N   -4.38183977846094      0.64707002258309      4.48038637983796
  O   -7.27949789869639      0.77666382536117      2.64371763617913
  H   -7.82241063932292      0.64918814586266      0.14111690342324
  H   -6.82437230736764      0.79562512156402      3.49494318354710
