21
Coordinates from ORCA-job 420optt
  C   -1.67443303523900      0.09749417958726      0.10901222960854
  C   -2.13860572041665      0.04676796808753     -1.20580301331960
  C   -2.59019595896919      0.25199292265878      1.14848155563944
  C   -3.96561568883248      0.35977027309183      0.93128457223142
  C   -4.43594641533281      0.30690513730017     -0.42520452782822
  C   -3.48434551798538      0.14840395230925     -1.47039204147993
  H   -0.61598308831752      0.01906560291332      0.33340135269993
  H   -1.43162610133519     -0.07326340371319     -2.01874910373461
  O   -2.15420094752057      0.30436349138722      2.45122558561050
  H   -3.84736923936870      0.10929602344001     -2.49095998827770
  C   -4.93790406396447      0.52143200905880      1.99575416619625
  C   -5.81070776815231      0.41137190614662     -0.68824580547905
  C   -6.31937667471940      0.62141403237703      1.65670890854164
  C   -6.74754495066954      0.56843566487540      0.35648426807250
  C   -4.66362602948697      0.59337570578466      3.37189185485709
  H   -6.14830629814258      0.36914078139361     -1.71642932545680
  N   -4.63973925948566      0.67242040279307      4.53193083738464
  O   -7.25252701689219      0.77456215524451      2.64432788172000
  H   -7.80831269185845      0.64921618489042      0.15841219127320
  H   -6.79834042342700      0.79364257890955      3.49836093675904
  H   -1.19769310988389      0.21874243146411      2.45400746498174
