21
Coordinates from ORCA-job 421optt
  C   -1.71813534775113      0.10458770390138      0.16436266499165
  C   -2.14158951326467      0.05067622353007     -1.15344954077441
  C   -2.63385446032508      0.25834404498177      1.19836249406038
  C   -4.00273571205791      0.36267480413500      0.93394558230933
  C   -4.46647871726989      0.30947908580545     -0.42525933829054
  C   -3.50147794550701      0.15250675147448     -1.43792886767272
  O   -0.38149679668629      0.00868617800692      0.50438672374724
  H   -1.41752112218810     -0.06966826143413     -1.95381452179811
  H   -2.27128835349019      0.29703292741330      2.21846796905101
  H   -3.83632745862239      0.11057940837231     -2.46842726353186
  C   -4.98011881538471      0.52388295056026      1.97824253062132
  C   -5.85428279999399      0.41506229910372     -0.69233217300929
  C   -6.36405087193668      0.62483409010468      1.65139317567147
  C   -6.78857168181174      0.57162414467398      0.35106112940686
  C   -4.61331669387819      0.58666329140695      3.33059079408074
  H   -6.19288735424354      0.37324593185286     -1.72019416321465
  N   -4.38029245370376      0.64630391415474      4.46780449734603
  O   -7.29049003512943      0.77823835638605      2.65186562054380
  H   -7.84907494090120      0.65210621556563      0.14934350684866
  H   -6.82828346924189      0.79625159359115      3.49910201531564
  H   0.12235454338788     -0.09134165358662     -0.30743283570257
