21
Coordinates from ORCA-job 428optt
  C   -1.69973479134043      0.10597034337543      0.21867079995153
  C   -2.14678502400654      0.05471454695247     -1.09573234964744
  C   -2.62982686101931      0.26072447318710      1.24583155130852
  C   -4.00000104412920      0.36629844036510      0.99123939746648
  C   -4.45309891680365      0.31224570935193     -0.37070534857493
  C   -3.49207569654578      0.15472029208397     -1.39143478898637
  H   -0.64014397128424      0.02653637455181      0.43963338336851
  O   -1.26577104095680     -0.09761300152284     -2.14957956689728
  H   -2.28811815920810      0.30167038973232      2.27350572349111
  H   -3.80811435756017      0.11071505131716     -2.42664558782327
  C   -4.98411780590687      0.52826885221923      2.03261742336863
  C   -5.83504072762042      0.41635406923261     -0.65751408435246
  C   -6.36626925181038      0.62869464488845      1.69874462462585
  C   -6.75317840969486      0.57086271353962      0.37984677761907
  C   -4.58116951923036      0.58888338569590      3.37671084025492
  H   -6.18848926143022      0.37666187730573     -1.67925249136571
  N   -4.23928576333720      0.63830249535190      4.48570301621446
  H   -7.10173722164747      0.74980420495027      2.48616259232048
  O   -8.08514311473955      0.66500007583056      0.02157769956319
  H   -8.59638455310239      0.76588310612837      0.82918652607612
  H   -0.37892450862598     -0.15395804453706     -1.78428613798140
