21
Coordinates from ORCA-job 429optt
  C   -1.68323994139653      0.10488009923524      0.23990939322280
  C   -2.11337962299060      0.05155412603384     -1.08570881895523
  C   -2.60040812982854      0.25877429918856      1.26246574903582
  C   -3.97959865416992      0.36464523765385      0.99332300011334
  C   -4.43548397574496      0.31122620903540     -0.36050556656301
  C   -3.46608484325999      0.15420075183558     -1.36650748751258
  H   -0.62671045289172      0.02523632003047      0.46505639174914
  H   -1.40159150406324     -0.06893213945235     -1.89679824956310
  H   -2.26828398143108      0.30081369312121      2.29251083425499
  O   -3.92798726914763      0.10625590262390     -2.66746965355945
  C   -4.96022348244916      0.52633596358247      2.02683405091559
  C   -5.82328059362157      0.41438991935137     -0.66678093417288
  C   -6.34769094188605      0.62655251104783      1.69209539941735
  C   -6.73497170217348      0.56804964348188      0.37072551064254
  C   -4.56036339235350      0.58864634245423      3.37296641657721
  H   -6.16600929865544      0.37303876750204     -1.68899398509864
  N   -4.23238389635326      0.64057346854993      4.48563381790794
  H   -7.08264100850045      0.74759667895332      2.47974098538077
  O   -8.06849480913785      0.66204627259933      0.02097761487759
  H   -8.57401455411532      0.76185983385747      0.83232300462391
  H   -3.16861794582959     -0.00028390068559     -3.24582747329411
