21
Coordinates from ORCA-job 430optt
  C   -1.67414294785172      0.12878473234458      0.21377128243884
  C   -2.11065555566741      0.00058350688503     -1.09593042986830
  C   -2.59382382388822      0.29780750643750      1.24681140509276
  C   -3.97646238950628      0.35429817560312      0.99764722164300
  C   -4.42979187524956      0.24520098975252     -0.36108645003626
  C   -3.47565591709849      0.05292077271394     -1.38175181484265
  H   -0.61524151217938      0.08939260782449      0.44035474768820
  H   -1.39795550467338     -0.15131210019410     -1.89778353543646
  H   -2.25065027365813      0.38748629557872      2.27054446100228
  H   -3.80730129259690     -0.10499672208047     -2.40104525616552
  C   -4.95423389599632      0.51304749598708      2.02733574706724
  C   -5.81524962876490      0.35756810380141     -0.63944601274756
  C   -6.34008860668089      0.58724274178388      1.70305173698613
  C   -6.74245845957493      0.52695062129274      0.38612463481008
  C   -4.54968992194226      0.60380596837484      3.37389558430038
  O   -6.26804618947309      0.32695368552173     -1.94530292206337
  N   -4.21529556190674      0.67853065439645      4.48144606595946
  H   -7.07456103552603      0.69035409505244      2.49322957382047
  O   -8.06866062061844      0.62543379062227      0.02872734665660
  H   -8.56896572914246      0.77410980687094      0.83580886199619
  H   -5.62421925800432      0.79996727143089     -2.48587224830153
