21
Coordinates from ORCA-job 436optt
  C   -1.66233243479518      0.14429454154735      0.20525193365260
  C   -2.09879730924531      0.06555459885737     -1.11413240155135
  C   -2.58719605579567      0.28416217703233      1.23249187829400
  C   -3.96709812975033      0.34985659856589      0.97752738410950
  C   -4.42156734565299      0.27116397601316     -0.38036577925171
  C   -3.45639720073468      0.12828056089154     -1.39591496472757
  H   -0.60445959323004      0.09621716778072      0.43450763811392
  H   -1.38285409537513     -0.04434815507914     -1.92051800052545
  H   -2.24983870418162      0.34456252183244      2.26096038211125
  H   -3.79954113952455      0.06713430326304     -2.42358912577500
  C   -4.95108718213287      0.49285956669566      2.01296939464706
  C   -5.81292930415083      0.33662625799532     -0.66067602858710
  C   -6.33832068407277      0.56223986737907      1.68629255964346
  C   -6.74513607721327      0.47974788744192      0.37071223117933
  C   -4.54621114705658      0.57765675499914      3.35777024016442
  H   -6.15272928923716      0.24953123405307     -1.68706776173102
  N   -4.20955826143430      0.65062068757036      4.46629409051616
  H   -7.06807792884874      0.67243252992610      2.47946255963550
  N   -8.12857183463855      0.49313600296504      0.04836410088504
  H   -8.67241314929645      0.95183285401121      0.76630012492031
  H   -8.29508313363283      0.95123806625837     -0.83777045572338
