21
Coordinates from ORCA-job 437optt
  C   -1.67509431771121      0.08847143583621      0.18201350074885
  C   -2.10357059491565      0.01453569786432     -1.14070992263614
  C   -2.61237276209900      0.27530684236437      1.19930987706867
  C   -3.97734698470763      0.39117678501878      0.92797953551399
  C   -4.42744089678649      0.31549642847985     -0.43399647121060
  C   -3.45001010332839      0.12562929472057     -1.44251936444651
  H   -0.62290032343472      0.00230424085367      0.42380964327047
  H   -1.38283115080347     -0.13012025513134     -1.93796004632865
  H   -2.28334501375722      0.33367017496831      2.23095524690666
  H   -3.78314377262028      0.06727575241303     -2.47354001418642
  C   -4.96785757950951      0.57878685919670      1.96509574114887
  C   -5.80235817127160      0.42993658911737     -0.71445176007521
  C   -6.34482428688140      0.70106303175046      1.63299601113335
  C   -6.74514097446848      0.62364192053623      0.31774358207015
  C   -4.59043048392073      0.61538789382985      3.31758828718381
  H   -6.13311172448296      0.37103254343334     -1.74462796584548
  N   -4.30842687582279      0.63745201552012      4.44428213128823
  N   -7.27300553616373      0.95345886690186      2.66119303762150
  H   -7.79861185209207      0.73186109302474      0.08240957372915
  H   -6.94846466280207      0.65667562522197      3.57217550751230
  H   -8.18676193242052      0.57524716407958      2.46151386953300
