23
Coordinates from ORCA-job 441optt
  C   -1.68638738742465      0.04661632601146      0.23640862234194
  C   -2.10877751343281     -0.03422907139786     -1.08919310167507
  C   -2.61457297698370      0.25613505374301      1.24716876937575
  C   -3.98015412256251      0.37125129996827      0.96036937041090
  C   -4.43300762091496      0.25282663511007     -0.39151475831564
  C   -3.45341354510051      0.07151126164816     -1.40462889419649
  H   -0.63335827386557     -0.04164803959081      0.47403204118925
  H   -1.38649081333363     -0.17609401541530     -1.88739720192124
  H   -2.28976799384314      0.33527390794253      2.27785379219100
  N   -3.88717764730823     -0.02870511070877     -2.74969313870923
  C   -4.96669711388396      0.59926920852185      1.99416044178701
  C   -5.81562969832529      0.33104170218738     -0.67782673540647
  C   -6.34661977481784      0.69815893704712      1.66272873518256
  C   -6.75245558330579      0.55565394271113      0.35633977651413
  C   -4.58557729523961      0.69070105970528      3.34202708564917
  H   -6.17630264268178      0.14748788865808     -1.68030587899128
  N   -4.30348434499580      0.75926071056912      4.46736057973687
  N   -7.27045586567522      0.98750429803023      2.68428998665252
  H   -7.80992945640998      0.62730395751941      0.12464296929557
  H   -6.94185090243354      0.72574269589337      3.60450919965013
  H   -8.18536611219032      0.60319891680763      2.50221029711575
  H   -3.12754875089912      0.14256409633004     -3.39408697288487
  H   -4.64234456437184      0.61964433870858     -2.94361498499228
