23
Coordinates from ORCA-job 444optt
  C   -1.68194090253049      0.08946502208706      0.12207108745429
  C   -2.14266437497039      0.08241448575921     -1.18825935885940
  C   -2.56980211329566      0.18858413055326      1.19464404705889
  C   -3.96329942046551      0.31278754591570      0.96995152036331
  C   -4.42709436738801      0.28101163384336     -0.38673155249247
  C   -3.49517422979458      0.16821710955731     -1.44059744511683
  H   -0.62190618933351     -0.00436056087364      0.33246183608187
  H   -1.43657279391440      0.00236892911216     -2.00695754244404
  N   -2.02988130779761      0.08626956563642      2.48550508367565
  H   -3.86869684786667      0.15198049309644     -2.45802311501444
  C   -4.96260448319814      0.46652979304300      2.01006823253774
  C   -5.81668849004480      0.35861363939819     -0.67443034678230
  C   -6.35105966300069      0.52701102112446      1.66384625397915
  C   -6.75691096738092      0.46686944391693      0.35043117614798
  C   -4.67281356361168      0.64710999113200      3.37081389621761
  H   -6.14329142935128      0.29641501917109     -1.70644739285546
  N   -4.48085903144851      0.82084068405414      4.50634709926407
  H   -7.08205915254363      0.62938689221841      2.45713123899261
  N   -8.13840292151119      0.47484279082197      0.02383777978174
  H   -8.68929075474777      0.91533443734606      0.74780853136841
  H   -8.30526484554952      0.94614522289498     -0.85524982204785
  H   -1.05941433787856      0.35519882984158      2.52529950829036
  H   -2.55990781237635      0.49429388034989      3.23980928439905
