23
Coordinates from ORCA-job 453optt
  C   -1.53854427268841      0.23252751443254      0.36164488240682
  C   -1.84935775785458      0.18915859670762     -0.98770048444770
  C   -2.56106094016197      0.30604309336200      1.31196596138987
  C   -3.90924414766284      0.33706705288625      0.93474626330282
  C   -4.23013317310110      0.29237411469327     -0.46262672335253
  C   -3.17998573230083      0.21863671656984     -1.40118818869961
  H   -0.50477687355102      0.20979217258670      0.68569019972044
  H   -1.05850986464638      0.13208124002125     -1.72699133410237
  H   -2.31947447244956      0.34004875347767      2.36771509338135
  H   -3.42810014283910      0.18521378602244     -2.45276138253830
  C   -4.98927260567685      0.41181183238914      1.88531051385591
  C   -5.59399019990357      0.32347831923097     -0.85238881425115
  C   -6.33202873058952      0.44029412503814      1.43792150724988
  C   -6.62637928004743      0.39667644005176      0.09129694473958
  C   -4.70961883255105      0.45502752955621      3.26596957045642
  O   -5.81057521825305      0.27541402091646     -2.22068791646173
  N   -4.47540344139219      0.49247765425944      4.40095870355584
  H   -7.13060209030115      0.49671127482705      2.16578718167068
  H   -7.66191093062282      0.42008435169224     -0.21867878116675
  C   -7.13585546066960      0.31292779074072     -2.65495626730747
  H   -7.11143544277924      0.27046063964069     -3.74343865913532
  H   -7.63967543767361      1.23586707724997     -2.34390489373934
  H   -7.71236495228401     -0.53962409635242     -2.27651337652734
