23
Coordinates from ORCA-job 454optt
  C   -2.35513618325914      0.17006858304317     -0.01792497019920
  C   -2.89276059694839      0.10842257048378     -1.29895179472129
  C   -3.19408310796649      0.31230396859844      1.08046209254784
  C   -4.58925932290910      0.39633220702928      0.93470755891821
  C   -5.14706521743648      0.33265047111858     -0.38245315131857
  C   -4.26910835086019      0.18911703060789     -1.47126159901443
  H   -1.28320509241607      0.10788463529403      0.12772574618808
  H   -2.24404832688457     -0.00234677735514     -2.16001101255601
  H   -2.77638263142858      0.36032339092130      2.07948223657221
  H   -4.69287557590750      0.14110733683522     -2.46913807808351
  C   -5.48770018879207      0.54244458917268      2.04514359286170
  C   -6.56059895819613      0.41331535753521     -0.56262905948996
  C   -6.89436328731174      0.62014631588383      1.83067348367695
  C   -7.39467781823964      0.55446006786964      0.54706391877227
  C   -4.97327066381012      0.60629188123448      3.35346953262200
  H   -6.95095580418550      0.36185762627280     -1.56847272604657
  N   -4.53949711969630      0.65799444445885      4.42868901348800
  H   -7.57554327528158      0.72964651539967      2.66256440175217
  O   -8.76907407021262      0.63732585717861      0.44023694029967
  C   -9.32195948247881      0.57492420938082     -0.84348266074926
  H   -8.97025438782861      1.39682171230615     -1.47621176356221
  H   -10.40133440628308      0.65557115606264     -0.71997741617204
  H   -9.08680613166713     -0.37256314933196     -1.33998428578608
