27
Coordinates from ORCA-job 461optt
  C   -3.74311414309198      0.71513932431897      0.54493623503151
  C   -3.98606905186494      0.78044068154605     -0.82321350742452
  C   -4.80203726000657      0.53921572235255      1.42823695221583
  C   -6.12492681219532      0.42451761220259      0.97521088123728
  C   -6.38114045991825      0.49231140429845     -0.43168185950348
  C   -5.28515261013818      0.67021784009979     -1.29826592595443
  H   -2.73226815952613      0.79983734624487      0.92522831406362
  H   -3.16551990397536      0.91664266234342     -1.51801760957967
  H   -4.61654480561205      0.48659745082300      2.49481400948282
  H   -5.47766829115455      0.72120044231174     -2.36489657245719
  C   -7.24188055360817      0.23825811692553      1.86194184239124
  C   -7.71382050291959      0.38534821807065     -0.91858012348879
  C   -8.56108784766070      0.12621634458772      1.33350416707078
  C   -8.78057730550653      0.21351550374535     -0.02700463432898
  C   -7.04314811722302      0.17756950780312      3.25183155747857
  H   -7.87672270378572      0.44608544529603     -1.98450207942823
  N   -6.85373676370995      0.14768438135791      4.39662423525297
  O   -9.61695594562746     -0.07273699461962      2.19397724619363
  O   -10.09425390469252      0.12762261659263     -0.42996612352096
  C   -10.12138480664728      1.13061549536552      2.73687752532439
  H   -10.92490409124884      0.86199195175059      3.42290677900573
  H   -10.51634383128241      1.77301248404916      1.94305108834897
  H   -9.34262003956530      1.66660778708339      3.28755069394793
  C   -10.34570715563588      0.18236331827078     -1.80559839374937
  H   -9.84998914466893     -0.63465790884876     -2.34012585926335
  H   -10.01851110585714      1.13279400665701     -2.24053559839504
  H   -11.42399468287675      0.08634923937153     -1.92571323995128
