27
Coordinates from ORCA-job 462optt
  C   -2.98203698884825      0.30180255873952      0.43209342305685
  C   -3.20990495622321      0.18917618038464     -0.94104619511700
  C   -4.06643332087804      0.43633843395935      1.29141704712193
  C   -5.40114380294735      0.46407806194278      0.82936489119817
  C   -5.61409173914812      0.34678098815762     -0.58165191453383
  C   -4.49440812493316      0.21087889660050     -1.43653216334808
  H   -1.97191405148503      0.28376212098898      0.81383174863461
  H   -2.36689251003251      0.08437563897905     -1.61395491646816
  O   -3.92231435668853      0.55121256762727      2.64584413700274
  H   -4.67226784986273      0.12338215266771     -2.50220032373093
  C   -6.54939493192718      0.60133960880489      1.68545707774991
  C   -6.92856959330816      0.36755305438185     -1.10470175383097
  C   -7.86480051458465      0.61798182832766      1.11068867913583
  C   -8.02596205338960      0.50263958667670     -0.24918773348735
  C   -6.51163081494150      0.72626683327082      3.09080870670134
  H   -7.09434426693346      0.27943905326362     -2.17001618377518
  N   -6.61717531717623      0.83786786804560      4.24107696543347
  H   -8.70471205326950      0.72255099622067      1.78025013675648
  O   -9.25520830912576      0.51032699960253     -0.87276716388879
  C   -10.38329514899883      0.64473075443534     -0.05513352326619
  H   -11.24991913579523      0.63095347377504     -0.71475481633760
  H   -10.36632668977943      1.58825886482859      0.50107105815204
  H   -10.46054492797570     -0.17962206059832      0.66202160018439
  C   -2.63520292510670      0.52941455904449      3.18573925803629
  H   -2.75628336739787      0.63188117238217      4.26262014002518
  H   -2.02450433501919      1.35764913423327      2.80839991576819
  H   -2.12085791422392     -0.41315932674236      2.96585190282666
