27
Coordinates from ORCA-job 465optt
  C   -3.21221254672377      0.16782618162223     -0.18706241218070
  C   -3.58550908269603      0.06082536368815     -1.53055910833605
  C   -4.16753604494774      0.33375309337184      0.79561827772588
  C   -5.53682570345383      0.39958079606524      0.47308429179167
  C   -5.94086808209322      0.29271433596866     -0.89178568450916
  C   -4.92872287349093      0.12327906128469     -1.86640754506266
  H   -2.16306107902022      0.11897351486482      0.07780550873206
  H   -2.82475242135729     -0.06838408097577     -2.28695159186144
  H   -3.87492302870457      0.41637422796063      1.83533722905739
  O   -5.38763813636777      0.02757848173605     -3.16193266090725
  C   -6.55989392978507      0.57189072517418      1.46351667952331
  C   -7.31310256119770      0.35556523916535     -1.24339160836862
  C   -7.93954369811106      0.63020861619777      1.08592502332232
  C   -8.27833545324820      0.52183887499982     -0.24429577472410
  C   -6.21154919966210      0.68425463368214      2.82081028438663
  H   -7.62348173953334      0.27472901396014     -2.27329131902949
  N   -5.92388673941564      0.77911758698957      3.94180838716014
  H   -8.68042252714556      0.75845925982358      1.86006693635000
  O   -9.57970400639881      0.56673761925008     -0.69864667740934
  C   -10.58520742178714      0.73022013004687      0.25992950663182
  H   -11.53141402308540      0.74255882416676     -0.27956693711787
  H   -10.46985119451753      1.67158852772368      0.80840059553183
  H   -10.59136073744474     -0.09399412324120      0.98168654797736
  C   -4.43488140465656     -0.14291439000706     -4.16937811970033
  H   -3.73410998886080      0.69866588696976     -4.21014442914814
  H   -4.98191838734586     -0.19860439717722     -5.10942017902707
  H   -3.86152798894896     -1.06673300331078     -4.03186522080817
