27
Coordinates from ORCA-job 466optt
  C   -3.10100272463010      0.11919051006953      0.12406519783936
  C   -3.32585969924988      0.25723757360447     -1.24102693604626
  C   -4.16660942699792      0.18759153451712      1.01611947746213
  C   -5.48276245390905      0.39199686378861      0.57215897305184
  C   -5.71397696673559      0.53288492733790     -0.83638186862903
  C   -4.61547324348005      0.46290878703839     -1.71666422501428
  H   -2.09667075156160     -0.04055122089689      0.49786283839525
  H   -2.49634482346566      0.20873346959334     -1.93692910336585
  H   -3.99210840451216      0.08153677677218      2.08049371870116
  H   -4.79912267780211      0.58677606576830     -2.77624339063458
  C   -6.60950105520709      0.46595332254213      1.45398711317251
  C   -7.03570569239884      0.73657748597929     -1.30254540144760
  C   -7.92853377128979      0.66336937165931      0.94393483418275
  C   -8.12104092469995      0.78950660457668     -0.41497921893783
  C   -6.42472102622961      0.33273061389811      2.84313080665945
  O   -7.25598724356481      0.88050570014388     -2.66108967901642
  N   -6.27172373719646      0.22375224349506      3.98789247495149
  H   -8.75212858628285      0.70618368843641      1.63988498804555
  O   -9.35082750953747      0.96521825481386     -1.00390822243098
  C   -10.45746847911092      1.02722777369015     -0.14890586557942
  H   -11.33134604552475      1.17122730593710     -0.78248902542394
  H   -10.37611039194847      1.86497312870232      0.55182726968839
  H   -10.57382354564972      0.10200687568629      0.42599848739613
  C   -7.58361556426080     -0.34124731476711     -3.28789350664553
  H   -7.68746053450261     -0.14378719253578     -4.35627772467762
  H   -8.52723297062288     -0.73500765168170     -2.89812516701689
  H   -6.79262174962863     -1.08253549816896     -3.13001684467974
