27
Coordinates from ORCA-job 468optt
  C   -1.77487445367256     -0.05579376275054      0.21630774365950
  C   -2.20569611768204      0.06719173347540     -1.10205996810715
  C   -2.72227169844931      0.02591019620620      1.24464924285294
  C   -4.07962950609441      0.24750429786011      0.99260778069627
  C   -4.52614417221240      0.36746485857895     -0.36812043510822
  C   -3.55946309062821      0.26261976795546     -1.37868556756540
  N   -0.40955788749881     -0.28692187142008      0.56155685451926
  H   -1.50492809607363      0.01392523946589     -1.92379126523651
  H   -2.40583575370624     -0.11218593850808      2.27156073144130
  H   -3.88200482508122      0.34765255197920     -2.41104488771075
  C   -5.06201659703650      0.34601765101979      2.03840163372278
  C   -5.90646190449775      0.57750216033893     -0.63562496291629
  C   -6.43181068280842      0.55411391655901      1.72345254582324
  C   -6.83187601716229      0.66574259044184      0.40974241396829
  C   -4.65785102821122      0.24342982921580      3.38509864991760
  H   -6.22930298638615      0.66418929828100     -1.66646640602588
  N   -4.31413307156834      0.16076258272801      4.48941043316349
  H   -7.15044145428145      0.62456369222557      2.52975137446392
  H   -7.88077412204734      0.82462987357890      0.18583613758838
  C   0.15572467650768      0.69935968170840      1.46507403819162
  H   0.31277923723195      1.66855232175707      0.96202197568039
  H   1.11914124445179      0.34260554418680      1.83620238637126
  H   -0.50169412532486      0.86212908333348      2.31424301690720
  C   0.48436573005856     -0.54611185378355     -0.53877282563480
  H   1.45865466486730     -0.83689398905780     -0.14135650829314
  H   0.63273160742142      0.33288856312903     -1.19031929729320
  H   0.10074042988474     -1.36348801850482     -1.14907483507613
