27
Coordinates from ORCA-job 471optt
  C   -1.66450127104367      0.45827026451455      0.24152618668318
  C   -2.07619477932247      0.62889433486581     -1.07221731366344
  C   -2.61491328831521      0.31563130309666      1.25159441282732
  C   -3.98858286080560      0.33077384931614      0.97506608260928
  C   -4.41936849525870      0.48786775634520     -0.38560562597851
  C   -3.43244782991385      0.64422544780238     -1.38256620648701
  H   -0.60942295514257      0.44141691853623      0.48751940092886
  H   -1.34298053240379      0.75445080370506     -1.86086604603525
  H   -2.29794899616015      0.19493101953445      2.28090742628659
  H   -3.75513457227111      0.80379839569343     -2.40301802938217
  C   -4.98807952842518      0.20718022638479      2.00483178842712
  C   -5.81396933976135      0.48094685418841     -0.68296607485605
  C   -6.36307240768161      0.23495271383937      1.66663928925526
  C   -6.75598277349124      0.35656950728303      0.35399078661563
  C   -4.59902987858677      0.07068655930471      3.35246462692437
  N   -6.20701697499939      0.56503201515325     -2.05955737258662
  N   -4.27459193511995     -0.04296808625059      4.45988783480671
  H   -7.10121876844895      0.15472511799892      2.45432874520657
  H   -7.81420843803562      0.36228482326995      0.12343471353217
  C   -6.06863568271711     -0.69934753372500     -2.76178463205164
  C   -7.50085154222725      1.15307155889640     -2.30582420051703
  H   -5.07657260995695     -1.11204715757707     -2.58082026951567
  H   -6.19333273366617     -0.54439079053464     -3.83805035476703
  H   -6.81732005562921     -1.43701331964046     -2.42684810622157
  H   -7.59101808442135      2.08771206409461     -1.75253335526092
  H   -8.34193441729399      0.49902201905246     -2.01664863700166
  H   -7.60400924890024      1.36261333485191     -3.37406506977846
