27
Coordinates from ORCA-job 473optt
  C   -2.57718616846288      0.12977360184366      0.55160295633817
  C   -2.96123383077678      0.33338379724524     -0.77082240166808
  C   -3.53831945118124      0.13101723853306      1.55983394432219
  C   -4.89610544933735      0.33257673855290      1.28123026222425
  C   -5.29727256113621      0.54039680229931     -0.07996987431374
  C   -4.29669456480867      0.53475902961498     -1.07853237710819
  H   -1.53501768779314     -0.02993071717925      0.80027783149065
  H   -2.21813909662197      0.33335636059224     -1.56028416446738
  H   -3.24036403988895     -0.03162784153959      2.58916422757590
  H   -4.60079321916901      0.69036340572210     -2.10838822594834
  C   -5.91418751490518      0.31701278786820      2.30553028979545
  C   -6.66486080567354      0.73331437351094     -0.37121307633174
  C   -7.28112855897160      0.56783320603499      1.97415357551817
  C   -7.62819527801797      0.76699342838477      0.65335758279877
  C   -5.54550264685655     -0.00927424144744      3.62338455413715
  H   -6.96642056087426      0.88098218235717     -1.40138831000472
  N   -5.20844570664427     -0.26258384645886      4.70441475173225
  N   -8.23492473419742      0.58250665476596      3.03046032152435
  H   -8.66074513762893      0.95839846979581      0.39295852353788
  C   -9.61533406296100      0.45185218943780      2.63758972723409
  C   -8.07320843165489      1.68149554059820      3.96908406147175
  H   -7.03769488456058      1.76686473845147      4.28577257493618
  H   -8.68627846970904      1.49516661197439      4.85382340717880
  H   -8.38742925356709      2.63865502208236      3.51866271836627
  H   -9.73533405951165     -0.40331072000291      1.97302072202092
  H   -10.00560630235455      1.34868547833681      2.12476668768705
  H   -10.22159752273486      0.29207970862565      3.53186970995186
