35
Coordinates from ORCA-job 479optt
  C   -3.23299140388898      0.19734402200848      0.52110220193115
  C   -3.57385677625503      0.26237873405513     -0.82649095616066
  C   -4.22469756316287      0.27542951228494      1.49204917730320
  C   -5.57782863018995      0.41907062714475      1.14806368621656
  C   -5.93299378006105      0.47862373932223     -0.23399044912869
  C   -4.90466832949208      0.40112614188303     -1.19296204592023
  H   -2.19672688952487      0.08734588874418      0.81747083095622
  H   -2.80494287015946      0.20316676426299     -1.58799063283441
  H   -3.95953940357087      0.22483566492787      2.54163527605543
  H   -5.17671439945107      0.44950609254375     -2.24224001458506
  C   -6.63603140750769      0.49905818718265      2.12166513522381
  C   -7.29868586423840      0.61537969290865     -0.59996600942283
  C   -8.00402782103362      0.65648754441676      1.71953774501620
  C   -8.31455345677640      0.70305302983085      0.36216080771898
  C   -6.29718223439325      0.35201726098774      3.47867385209974
  H   -7.53411966000214      0.66601494627993     -1.65374596131697
  N   -5.98847837429883      0.21495924313982      4.58997614431596
  N   -9.05936902178316      0.69504025415282      2.68396914863265
  N   -9.68408643767489      0.81763290730509     -0.03677950572023
  C   -9.38462742206655     -0.59649889867717      3.25991088682171
  C   -8.98750840498116      1.75426359169809      3.67508651313053
  H   -8.69725485774285      2.68381780938123      3.18259897488601
  H   -8.27543748967867      1.56278683490088      4.48706627241807
  H   -9.98009293422128      1.89362150652548      4.11774680232251
  H   -9.54325675657158     -1.31223604490364      2.45301602961537
  H   -10.31251074932547     -0.51105771334673      3.83387454744797
  H   -8.60093631551818     -0.98156197569217      3.92864681730887
  C   -9.98196594492341      0.44084485034159     -1.39776457497514
  C   -10.28881795621135      2.09617811532964      0.28708777140367
  H   -10.14417377971676      2.31601342379766      1.34017695638766
  H   -11.36257176061162      2.04954462622063      0.08581185099384
  H   -9.85980157990874      2.91280589157064     -0.31805285864698
  H   -9.53941591118345     -0.52860019106950     -1.62303278569205
  H   -9.61961249408479      1.16773705133872     -2.14481871964497
  H   -11.06645131978891      0.36628086920296     -1.50923291415797
