13
Coordinates from ORCA-job 47optt
  C   -3.03223656899661      0.56674410285028     -0.00000014447317
  C   -2.83962436547033     -0.78067427139030     -0.00000001631702
  C   -1.89311994727748      1.44417396167185     -0.00000008216565
  C   -0.58669281803953      0.84329844434266      0.00000001329465
  C   -0.47369685329440     -0.51317766406310     -0.00000001393576
  C   -1.57140123325059     -1.40054248529234      0.00000020825087
  H   0.29645997345194      1.46604881324344     -0.00000013873040
  Cl  1.12944775250795     -1.22887444818451     -0.00000061199850
  H   -4.03227284990209      0.97633634672720     -0.00000051818869
  C   -2.05052734319143      2.83329147191262      0.00000022683049
  Cl  -4.24269291067678     -1.83553055655585     -0.00000026127026
  H   -1.45033481310215     -2.47047556599401      0.00000093278795
  N   -2.18201802275849      3.99064185073206      0.00000040591549
