22
Coordinates from ORCA-job 486optt
  C   -2.75585217014377      0.18372957676503      0.15564364173136
  C   -3.33726394707369      0.70243255989905     -1.01884076811693
  C   -3.60331938844592     -0.07683722787000      1.25386433252464
  C   -4.97564063828131      0.13936573492880      1.19204805523142
  C   -5.56220779608919      0.65968522905354     -0.01749112313437
  C   -4.68226342281215      0.93573746143253     -1.10837432584706
  C   -1.32534260066401     -0.07433185074804      0.29963406842940
  H   -2.72776403703774      0.96974643234633     -1.87742881133292
  H   -5.10382971655295      1.34855294845627     -2.01755584637353
  C   -5.87647530096379     -0.13168497366489      2.28650319874787
  C   -6.93469989720679      0.88414080697605     -0.09630937736223
  C   -7.25493526146404      0.10950504318121      2.16070132231080
  C   -7.78310067086940      0.61030930627080      0.99132423790672
  C   -5.38224525614010     -0.64921412063575      3.50906560364015
  N   -4.99277605084502     -1.07367663695021      4.51075658022896
  H   -7.89758025750957     -0.10648905451880      3.00516738737141
  H   -7.34393810502094      1.27783075756395     -1.01989510947685
  H   -8.84741387045129      0.79099059937164      0.91204627241439
  H   -3.15772389868793     -0.46395237741908      2.16182227898798
  O   -0.76212312072744     -0.34706280881995      1.33180282430080
  O   -0.55862006835919     -0.00627902348507     -0.84022208275252
  H   -1.13636452465367      0.08455161786657     -1.60301235942957
