22
Coordinates from ORCA-job 489optt
  C   -2.11848906033733     -1.05392028533903      2.18579195521269
  C   -1.69317288975085     -0.36472738150982      1.05467757796781
  C   -3.45527960382689     -1.02691894689634      2.53536501899894
  C   -4.41075927296483     -0.34896126852854      1.75743771609391
  C   -3.99971584744666      0.28458472231490      0.53884037789749
  C   -2.61570466573139      0.29864957066430      0.26101296709858
  C   -4.80413231577845      1.37506624547963     -1.65734096117977
  C   -5.78103704616351     -0.24847698187709      2.17439268953392
  C   -5.00028701125486      0.92364424512609     -0.28763089735838
  C   -6.69521619801260      0.51299330483585      1.41050693420763
  C   -6.30975553172417      1.07983847050473      0.22641872885505
  C   -6.20139954954378     -0.86601128635838      3.37222022075073
  N   -6.53894681595102     -1.37499787879384      4.35569188797023
  H   -7.71244142522542      0.62103703885049      1.76429887798368
  H   -7.01923234774779      1.62870748375537     -0.37804385525680
  H   -3.78929755422865     -1.52275266448987      3.43909454112093
  O   -5.51270872686591      2.16849860287119     -2.24070824497898
  O   -3.77626107781119      0.81162623793036     -2.37242220896424
  H   -3.40699223012512      0.07953942258793     -1.86450640057824
  H   -1.40653688001099     -1.58423217812454      2.80612434624520
  H   -0.64159829915003     -0.32666177963692      0.79817440370242
  H   -2.24668565034841      0.88905530663357     -0.56755567532281
