22
Coordinates from ORCA-job 491optt
  C   -2.10868465181751     -1.09586676235991      2.92220755506809
  C   -1.12707816240007     -0.64844192808330      2.03940296600335
  C   -3.44944829387710     -0.89729502537837      2.64799432073125
  C   -3.87043929017785     -0.23962735965857      1.47150953660560
  C   -2.86175700061614      0.21541687538617      0.57048220776059
  C   -1.51395536661786      0.00122877497814      0.87658283384052
  C   -7.02244721473140      0.89765517395196     -0.37761674510666
  C   -5.25317882894342     -0.02132968279328      1.15579643088196
  C   -3.26712449018559      0.89138333165798     -0.62811865148360
  C   -5.62730636665774      0.63506588182433     -0.06481518519116
  C   -4.58968506327559      1.07747473587404     -0.91186268552428
  C   -6.19642445477322     -0.53851893549689      2.07647109354996
  N   -6.85349141557740     -1.01984272680701      2.89720234846335
  H   -4.20157871257042     -1.24937797692313      3.34229098517594
  O   -7.94599513080165      0.85565704380543      0.39905721692260
  O   -7.31302559943130      1.22772537454408     -1.68859375244619
  H   -6.55424188560480      1.01493373609471     -2.23879353162042
  H   -1.82298819243918     -1.60520624423046      3.83506163848970
  H   -0.07809128597344     -0.80538827754869      2.25734792162744
  H   -0.76551500443770      0.35714813948261      0.17630405386819
  H   -2.50369619568091      1.27031871849329     -1.29687128832463
  H   -4.83404739340953      1.64222713318687     -1.80586926929162
