25
Coordinates from ORCA-job 498optt
  C   -1.90930234765035     -1.06530686453985      2.94913465187713
  C   -0.94045353795060     -0.60954899264005      2.06797078168616
  C   -3.27325747110858     -0.83100989951426      2.68035579832142
  C   -3.68050019038259     -0.20530075145815      1.49219968555817
  C   -2.66933655002734      0.31321639224118      0.60878863230133
  C   -1.30598253572476      0.08432379019830      0.93168281073066
  C   -5.05094717604235     -0.07278792221602      1.05410479160245
  C   -3.03587623834520      1.03465299176213     -0.53669104391682
  C   -5.37044002643858      0.66543174745238     -0.08098367781300
  C   -4.39441318634840      1.24356822333340     -0.87889013437779
  C   -6.10377527878406     -0.82028670817028      1.65349184844381
  N   -6.96332157072880     -1.46655138843167      2.06848777833869
  C   -4.21381774325575     -1.12887218726803      3.79913192490195
  H   -1.62000733718262     -1.53262828015373      3.88213277288681
  H   0.10743438480923     -0.77445114984382      2.28811908130252
  H   -0.54851680679131      0.46216381917269      0.25492270582615
  H   -2.22504394796004      1.47433355956736     -1.10846914743903
  C   -4.84051001044857      1.96899285245922     -2.07495736003522
  O   -5.97392554534772      2.30575465839396     -2.31239168807057
  O   -3.87256647109645      2.27088235383135     -2.99005385654192
  H   -3.04992026842796      1.84559056245749     -2.72689837645209
  H   -6.40557997442174      0.76322480153831     -0.38113416378874
  O   -4.99804738998050     -0.35946327682782      4.26973256284359
  O   -4.05699925356930     -2.35709055616181      4.36785920078457
  H   -3.46958352679543     -2.87748777518228      3.80784442102966
