14
Coordinates from ORCA-job 49optt
  C   -2.99985267882637      0.52666462208970     -0.00000032398617
  C   -2.81345426619992     -0.83327560068072      0.00000006019921
  C   -1.85674396123870      1.41376136234411     -0.00000015845593
  C   -0.55955282456789      0.80725254016553     -0.00000026767389
  C   -0.42083609198057     -0.55357455218115      0.00000021870114
  C   -1.54319474994460     -1.42507791665053      0.00000015532828
  H   0.31530387994222      1.44597051814317     -0.00000012996636
  H   0.57683188332765     -0.97946548584602      0.00000006064491
  H   -4.00284858678555      0.94075999786141     -0.00000009847507
  C   -2.01472290874022      2.80027086972182      0.00000010020632
  O   -3.89769805719736     -1.69442919237182      0.00000020331034
  H   -1.44635483135206     -2.50089245271247     -0.00000006837460
  N   -2.15622004567554      3.95976355542932      0.00000030014168
  H   -4.69149676076106     -1.15218826531236     -0.00000005159985
