25
Coordinates from ORCA-job 502optt
  C   -2.22226642174433     -1.10064866088791      2.99284005120729
  C   -1.13920337500175     -0.43779148765788      2.41734706577403
  C   -3.46484183322804     -1.00405851883198      2.40242622174601
  C   -3.66015094879454     -0.25447318618668      1.23165099940172
  C   -2.55691285852625      0.42291160140183      0.63098704572143
  C   -1.30258545357652      0.30745440491165      1.26556183912531
  C   -4.96390731784216     -0.15358590767795      0.62615622096339
  C   -2.75973769274324      1.16144776150098     -0.59964755444075
  C   -5.14884810021977      0.66548872175537     -0.49120446324395
  C   -4.09110704078341      1.32628554590771     -1.08347504612276
  C   -6.07348351191521     -0.82223811387858      1.19486083885794
  N   -6.97530280154124     -1.37613219242650      1.65986692728429
  H   -4.31785194586033     -1.51005669023407      2.83885330293026
  H   -2.09399673064182     -1.68425366909193      3.89613663796124
  H   -0.15892386682064     -0.50098594620221      2.87414564521740
  H   -0.46029830231784      0.82173220174757      0.83183774616607
  C   -1.64254727808974      1.60734271195111     -1.39884862300826
  C   -4.45351571183496      2.36761381548152     -2.08881919348054
  O   -4.11828190305923      3.51604455764136     -2.06196742305446
  O   -5.30822704866519      1.94633322072368     -3.06379892069060
  H   -5.38378373323665      0.98708850871878     -3.00067376224468
  H   -6.15802702753973      0.83188131989354     -0.85084007534589
  O   -0.48758640727984      1.80354408288271     -1.05437915170046
  O   -1.96194208522117      1.76768215769270     -2.72164337014443
  H   -1.18182060351625      2.17176376086517     -3.12078295887959
