20
Coordinates from ORCA-job 503optt
  C   -3.74499662103353      0.21559452804700      0.10060568191748
  C   -2.76749770787276      0.89292313330781     -0.58939754236081
  C   -5.11197212676745      0.55025005987818     -0.06866781382974
  C   -5.51426592850939      1.58749692939818     -0.95651836234662
  C   -4.46726509383676      2.28872537754773     -1.66514590090554
  C   -3.11980638098103      1.92011007253850     -1.46258359046263
  C   -6.85368027951749      1.99701317943449     -1.21012633719706
  C   -7.14220447692261      3.05352373285088     -2.11000116906914
  C   -6.12872380507187      3.70960079057493     -2.76765504469168
  C   -4.80427557459998      3.33402932461790     -2.55183719271837
  H   -3.49330150629836     -0.58248633609133      0.78604571875368
  C   -6.01572422527101     -0.22182492408080      0.71611207354549
  H   -1.72633149881395      0.62742294205192     -0.45152751677757
  H   -2.35590790041721      2.46097931210571     -2.00869662736494
  C   -7.99711552332384      1.39884254324189     -0.60753092791478
  H   -8.17720512239111      3.32676191068211     -2.26557746193789
  H   -6.36213398491317      4.51566211755346     -3.45273749527817
  H   -3.99937649937911      3.84390849366253     -3.06806345259135
  N   -6.64326293156608     -0.90768766583540      1.39888349047183
  N   -8.99515281251323      0.99873447851424     -0.19016052924216
