26
Coordinates from ORCA-job 508optt
  C   -3.80224045033152      0.22295376848231      0.09859412272942
  C   -2.84530950414306      0.91707021601931     -0.60720130650582
  C   -5.16913782449057      0.56993277549624     -0.07737697360208
  C   -5.56835322226632      1.60666548983951     -0.96838336335968
  C   -4.52912995861478      2.31607386455278     -1.67929494190665
  C   -3.17396267397349      1.95244597432873     -1.48536710580676
  C   -6.91307058897416      2.00333303323065     -1.21757374855716
  C   -7.21551984653459      3.06255018963815     -2.10988309288858
  C   -6.21190015272650      3.73032877899131     -2.76634329046835
  C   -4.88090206202611      3.36522762777812     -2.56112988970945
  C   -3.41892809747228     -0.87823544312841      1.04438537011455
  C   -6.08658873036603     -0.18316062026614      0.70908435645862
  H   -1.80097601260185      0.65202885537657     -0.47321248027157
  C   -2.09250607291205      2.68088277191519     -2.22537382892802
  C   -8.05431047431335      1.38956552813807     -0.62685590978803
  H   -8.25392771522934      3.32592606476256     -2.26020740111876
  H   -6.45417604128957      4.53867104593854     -3.44573868574687
  H   -4.09949838988189      3.89533681381555     -3.08689897872828
  N   -6.71893864309134     -0.85829207192308      1.39877102360880
  N   -9.05530276200892      0.98103557732778     -0.22464390003737
  H   -2.33721199541087     -1.01291631485990      1.05122699641093
  H   -3.88900162879408     -1.82464008238475      0.76505260566080
  H   -3.75206005394602     -0.66157180735543      2.06266643177187
  H   -1.11278012644643      2.27725155568010     -1.96813132099519
  H   -2.09033812184769      3.75160321272682     -1.99129027134841
  H   -2.21850885030705      2.60030319587939     -3.31109441698793
