26
Coordinates from ORCA-job 511optt
  C   -3.75995519865519      0.25750810291516      0.12403952184811
  C   -2.81574152853384      0.96430556041052     -0.58101331986689
  C   -5.13749181797460      0.56990371411614     -0.06444575081907
  C   -5.56286316438723      1.58777787556801     -0.97191484112152
  C   -4.53761750841809      2.31358760327374     -1.68634215227866
  C   -3.18618575614189      1.97809468470430     -1.47051561858477
  C   -6.91318746423868      1.94459016148496     -1.22872496035161
  C   -7.23449040019063      2.97913384977267     -2.13641794146514
  C   -6.23909748252945      3.66124757048294     -2.79761309397361
  C   -4.89715835575972      3.34939047008759     -2.59285771368432
  C   -3.36181450155782     -0.82537276909822      1.08451734820334
  C   -6.03982686708697     -0.19706339436365      0.72285263528465
  H   -1.76636541904191      0.72960307683144     -0.44037063281638
  H   -2.41582735446126      2.51544055834814     -2.00517667828195
  C   -8.04387008018050      1.31470233771946     -0.62988232420800
  H   -8.27644670678797      3.21854334011599     -2.29974404019203
  H   -6.50120152606970      4.45316457382452     -3.49094475433970
  C   -3.82581656149805      4.10012259901052     -3.32432763212630
  N   -6.66362286077195     -0.87945494481393      1.41433868284628
  N   -9.03769873488458      0.89308441044305     -0.22537208839208
  H   -2.27753365489031     -0.93611584851395      1.10245912113071
  H   -3.80917838500461     -1.78408474258201      0.81001265551338
  H   -3.71004394881455     -0.60578699089607      2.09702544860921
  H   -3.21479335917129      3.43398043711432     -3.94415152908706
  H   -3.13723724247945      4.59984076532783     -2.63347389936914
  H   -4.26427412046948      4.85857699871646     -3.97352644247742
