26
Coordinates from ORCA-job 513optt
  C   -3.84458707578875      0.24147603040388      0.15780433106585
  C   -2.86255152877711      0.91177712564209     -0.52804068839822
  C   -5.21722411399464      0.55038962648659     -0.02656607029651
  C   -5.62838207820351      1.56391860464584     -0.93700442774102
  C   -4.58661804635813      2.27048614461561     -1.64842838859753
  C   -3.23638810112729      1.92198740510096     -1.42403676767412
  C   -6.97448566806290      1.93726445104359     -1.20269368215306
  C   -7.27488517120621      2.96852764647337     -2.11742543036847
  C   -6.26586379584480      3.63226217030743     -2.77663449709914
  C   -4.92794517161748      3.30347166055717     -2.56151122178783
  H   -3.58680828648938     -0.54124925066360      0.86087715617231
  C   -6.11080925126571     -0.22020576160989      0.76823195236707
  C   -1.40837436250575      0.58206085240889     -0.33361240910269
  H   -2.45915077614749      2.45081989859566     -1.96055509275667
  C   -8.11103088458914      1.32306107485499     -0.59982680135451
  H   -8.31223543281907      3.22225465869225     -2.28910103556817
  H   -6.51251262490899      4.42330251271117     -3.47641385556615
  C   -3.84480741407569      4.03769829873857     -3.29293753588243
  N   -6.73058463422340     -0.90097723306770      1.46390835549269
  N   -9.10476347702468      0.90784322051256     -0.18851245944622
  H   -1.28035846409570     -0.21300275223245      0.40137288106428
  H   -0.84944189438635      1.45678004950662      0.01019604133481
  H   -0.95016941218913      0.25559100265194     -1.27130381147803
  H   -3.23847562281833      3.36112219537242     -3.90578850678719
  H   -3.15394936822142      4.53425043210332     -2.60225084871497
  H   -4.27186734325849      4.79682993614852     -3.94886718672392
