15
Coordinates from ORCA-job 51optt
  C   -3.02427234436610      0.45697285339823      0.00000052623847
  C   -2.85206772399618     -0.89846806538901      0.00000028464257
  C   -1.91236130194797      1.36008023117781      0.00000039476177
  C   -0.60462102949593      0.75100689114204      0.00000029182981
  C   -0.43594412050655     -0.60266961781978      0.00000020930363
  C   -1.55546701645998     -1.47372376280742      0.00000016197094
  O   0.49674877265509      1.57350640809459      0.00000031882760
  H   0.57572471311257     -0.99015542695312      0.00000004681774
  O   -4.27068721122196      1.05040235414494      0.00000068468050
  C   -2.02452112135848      2.74677262701952     -0.00000050769166
  H   -3.73298696426221     -1.53559224959903     -0.00000002063037
  H   -1.42610032357128     -2.54613248855574     -0.00000147085269
  N   -1.99624728256601      3.91663466443728     -0.00000135218423
  H   -4.92439439353078      0.34606737490923     -0.00000013778637
  H   0.18688734751580      2.48831820680042      0.00000057007231
