29
Coordinates from ORCA-job 526optt
  C   -0.94522246059079      0.90242816833196     -0.36808858491615
  C   -0.86243774107628     -0.29326739573217     -1.04883135505199
  C   0.24691846252059      1.43491799429350      0.21580020004872
  C   1.49228980030619      0.74091296104180      0.16183554257449
  C   1.53601328732785     -0.48544943584265     -0.59720495086649
  C   0.35056570786531     -0.96980098507971     -1.18037620213873
  C   2.70057744942990      1.15196581906657      0.78887607516714
  C   2.75949693083499     -1.17481562037239     -0.74632610465870
  C   3.93320130201710     -0.70831082628099     -0.16270673630455
  C   3.90818059940732      0.43440937552658      0.60376907148933
  C   -2.25516293890674      1.64424860313315     -0.19549478615368
  C   0.13841247371386      2.73351863788044      0.78586961031981
  H   -1.74831047690956     -0.71604047103458     -1.50489269073725
  H   0.39601123796323     -1.89646177358379     -1.74051865867613
  C   2.79772370210471      2.24916131518598      1.69401989352762
  H   4.80215679982579      0.79943095094401      1.09106811444986
  H   2.76353998563458     -2.08373457972914     -1.33653185934825
  H   4.86255941669430     -1.24817162832018     -0.29798880127996
  N   -0.05467638582747      3.79768002774939      1.18967058730470
  N   2.99633385292678      3.08307914082062      2.46527690983483
  C   -3.33675458498964      1.22395059052111     -1.18589493264576
  H   -2.98380608534397      1.28604209079570     -2.21639337528014
  H   -4.20841038025364      1.87271331031336     -1.07868643921012
  H   -3.66697320382097      0.19903623270513     -1.00047111490560
  C   -2.78052625252377      1.48988328444133      1.23773058597476
  H   -2.05492024657739      2.70822344482369     -0.35399861090951
  H   -3.69675401474974      2.06927246977588      1.37819919399954
  H   -2.04605534585536      1.83263453252284      1.96534587275395
  H   -3.00167089114716      0.43808376610250      1.43695354563827
