29
Coordinates from ORCA-job 528optt
  C   -0.90220244138617      0.02640693993569     -0.36968462848373
  C   -0.76140359608688     -1.32891547539154     -0.19279463535515
  C   0.21252467014677      0.88536092792524     -0.26536999768796
  C   1.50444624050776      0.36977600876984      0.02599514332646
  C   1.63260537947970     -1.06282748744312      0.20189226998792
  C   0.48267344332427     -1.89970499108547      0.08990939879372
  C   2.68352601501431      1.15987117645073      0.15814640386818
  C   2.91105664903995     -1.59752166250475      0.48921533739706
  C   4.04136218649674     -0.78699327853096      0.61487437341608
  C   3.93663257453626      0.57053008133142      0.45221842310485
  H   -1.86969143620643      0.45853302258380     -0.58724151693111
  C   -0.07996169492579      2.26548659791557     -0.46678261013978
  H   -1.64065142454232     -1.95460178473656     -0.27222475470592
  C   0.62893696716655     -3.39832489210585      0.24540123882796
  C   2.71725122386005      2.57554885663325      0.01122215224191
  H   4.80085303506817      1.21496685759341      0.54183133183000
  H   3.02762218506802     -2.66325150898435      0.61623445418016
  H   5.00278863690745     -1.23332002148085      0.83827118601624
  N   -0.44913320389461      3.34278831180656     -0.64732224725451
  N   2.87888927328068      3.71353584428097     -0.08645876988305
  C   -0.67661001364810     -4.12176356784761      0.57053438487769
  H   -1.17805293918849     -3.67383526602762      1.42971703774108
  H   -0.47411159027849     -5.17118270986560      0.79557561045095
  H   -1.36622628262666     -4.09714758496103     -0.27591881304371
  C   1.25423628930257     -4.02317338158867     -1.01008072294381
  H   1.30527290013954     -3.58330347394079      1.08716299605932
  H   1.46460612037734     -5.08633851239478     -0.86152968550984
  H   2.18016401942878     -3.51878777274800     -1.28553327575635
  H   0.55869681363901     -3.92555125358880     -1.84723008442467
