15
Coordinates from ORCA-job 52optt
  C   -3.01720924448467      0.50733697732285     -0.00000043983247
  C   -2.85551235858072     -0.85044440214462     -0.00000023510823
  C   -1.90558500148776      1.39099367286819     -0.00000051136022
  C   -0.58840170626957      0.78602808891858     -0.00000037566200
  C   -0.45539390224053     -0.58550932447851      0.00000001284834
  C   -1.55131437821151     -1.44212417776846      0.00000023391300
  H   0.28691914081467      1.42553333212724     -0.00000053790867
  O   0.80203902473752     -1.17071881235868      0.00000018522558
  O   -4.26566228164218      1.09312976059364     -0.00000040710049
  C   -2.06796379115973      2.77966972625130      0.00000035696451
  H   -3.73722157626207     -1.48484471389528      0.00000003471901
  H   -1.40783718043581     -2.51248722196782      0.00000073573788
  N   -2.14989780545222      3.94179057204461      0.00000089616113
  H   -4.91485541371420      0.38474140848930      0.00000010881154
  H   1.44591647438881     -0.45733488600237     -0.00000005740889
