38
Coordinates from ORCA-job 531optt
  C   -0.84961297097722      0.48009897366429      0.12068482580009
  C   -0.84646567654366     -0.87129639035981     -0.13619813288342
  C   0.40533905860757      1.12569720673426      0.33019080498212
  C   1.63952744778978      0.40579987548154      0.33133197609395
  C   1.60551823236897     -0.99809639778248     -0.01139552308210
  C   0.34515879510400     -1.59639282289541     -0.22365407788448
  C   2.90213037041565      0.97297705421615      0.64934518236722
  C   2.82191910277751     -1.73497404048492     -0.12637275571804
  C   4.03839607859793     -1.09916835810592      0.12770493940032
  C   4.08683464846081      0.21754736643118      0.52202024055063
  C   -2.12624199893114      1.29578861895436      0.11666617854290
  C   0.36432318195506      2.54000470469811      0.47278446213118
  H   -1.78258497537585     -1.39336658253722     -0.28838138541015
  H   0.28326236746010     -2.65119835246157     -0.44661276989138
  C   3.08566261868460      2.28160971771675      1.18498145867241
  H   5.03094217032312      0.69231015101241      0.75279277573458
  C   2.77392738911030     -3.20465895817756     -0.48400793211615
  H   4.96777532475646     -1.64488050717150      0.02970433211852
  N   0.21616516227249      3.68340310638458      0.53403638996519
  N   3.36027101411959      3.29372546310164      1.66389780543799
  C   -2.31007985911874      2.00032423616029     -1.23354966395794
  H   -1.45253368597135      2.63038096029476     -1.46607462391039
  H   -3.20383808851840      2.62967463299217     -1.22316439514985
  H   -2.42021834930352      1.25430260432125     -2.02474763948520
  C   -3.37358323237494      0.48060750978821      0.44793113485915
  H   -2.02480866779006      2.07330809982024      0.87885658967115
  H   -3.25169740421955     -0.07710774770210      1.37756325436646
  H   -3.60626380833982     -0.23109858022118     -0.34743307726368
  H   -4.23377439058212      1.14524493609585      0.55156477596604
  C   2.36364146450517     -4.05022166701822      0.73026276300597
  H   3.14819887180569     -3.99818713726139      1.48911634060242
  H   2.22242986961335     -5.09922420060122      0.45414855057004
  H   1.44188914838257     -3.67947301713469      1.17823234615804
  C   4.08011605717585     -3.74826091716086     -1.06008059675356
  H   2.01118721477662     -3.33465307425574     -1.25939285401274
  H   3.93327014495773     -4.77009870664454     -1.41683589819250
  H   4.86695511063873     -3.77772615483281     -0.30331654192649
  H   4.43332226338665     -3.13792160505881     -1.89258925935827
