38
Coordinates from ORCA-job 536optt
  C   -0.69387693378789     -0.29784723802685      0.71235024519403
  C   -0.56965306454782     -1.64597837769472      0.49027138893809
  C   0.38839989462025      0.55667545834034      0.44359322223179
  C   1.62713637803056      0.02872585149708     -0.01444832338006
  C   1.81838555794519     -1.41030606220214     -0.00552383878702
  C   0.64386496110351     -2.23460187659876      0.09808241232338
  C   2.68647399013755      0.85631380958584     -0.47961175051863
  C   3.16759281495430     -1.90035317744221     -0.09919097598516
  C   4.18720233834063     -1.01962770772176     -0.49609266176981
  C   3.95579776717961      0.31118618651829     -0.73581759755027
  H   -1.62263646629662      0.12433124258252      1.07201632748015
  C   0.19767870422006      1.92922799431424      0.76920914935678
  H   -1.44558374619912     -2.26226060084952      0.63079200536535
  C   0.62509754811836     -3.68890823265579     -0.35497768083143
  C   2.51304632769830      2.22658723772401     -0.82365455949102
  H   4.74351848423628      0.95701419404619     -1.09999269718256
  C   3.56387043463940     -3.29364534704524      0.37241479319318
  H   5.19440497268614     -1.38707910677224     -0.62746917523249
  N   -0.03885266353207      3.00375318355422      1.11540841824249
  N   2.46151475600005      3.32104898165773     -1.18403925648221
  C   -0.73198127710376     -4.37979613445175     -0.21706185140809
  H   -1.08102155415437     -4.39340255719738      0.81655429211260
  H   -0.64139780415892     -5.41440136237920     -0.55495634612394
  H   -1.49369033398240     -3.89374523603050     -0.83018421573366
  C   1.07195452698062     -3.79353312575339     -1.81987217921318
  H   1.30637426937409     -4.28805659269999      0.25219135003811
  H   0.32182160037152     -3.32543075924116     -2.46179534937076
  H   1.17902400411224     -4.83970244619551     -2.12098268160419
  H   2.01828351519915     -3.28098844811972     -1.99137493996813
  C   5.05473151971184     -3.60805159365624      0.24378433796048
  H   5.39904753337598     -3.54343486665470     -0.78947869836882
  H   5.23593702112704     -4.62601956431908      0.59551783686187
  H   5.66113343074799     -2.93247424390559      0.85060115003454
  C   3.15533364813184     -3.49298871557774      1.83886655970497
  H   3.06461147563845     -4.05753962723393     -0.22693920302165
  H   3.75605466812606     -2.83755703439861      2.47410426439968
  H   3.32359363220779     -4.52707765804930      2.15336694312751
  H   2.10782806874805     -3.24233644694727      2.00435928545810
