20
Coordinates from ORCA-job 537optt
  C   -1.03767751112404      0.53912369527003      0.00000296915064
  C   -1.01668299450026     -0.82421977212862      0.00000798357412
  C   0.12379333762823      1.33837444305149     -0.00000371647236
  C   1.40787908589394      0.70596267048777     -0.00000014502490
  C   1.43462526365667     -0.74024262913396     -0.00000048535237
  C   0.23049586096858     -1.46405533850919      0.00000472782214
  C   2.65451793519935      1.37757243700358      0.00000349836006
  C   2.68273453905781     -1.41070943363646     -0.00000524988668
  C   3.88380275698549     -0.71344420301899     -0.00000758376473
  C   3.88030715619642      0.66315636426396     -0.00000250531517
  F   -2.22805435890369      1.17454141304432      0.00000255809011
  C   -0.08724636781853      2.74257370026298     -0.00001983434536
  H   -1.94872959855603     -1.37208025826696      0.00001291223850
  H   0.28065883778036     -2.54569906074504      0.00000647743462
  C   2.79867188495210      2.79682443882531      0.00001956088923
  H   4.80338627547043      1.22620388915879     -0.00000152585587
  H   2.67766181702000     -2.49422986974137     -0.00000688503248
  H   4.82462194041371     -1.25057971909345     -0.00001249092258
  N   -0.34498695762165      3.86620795569490     -0.00003353621297
  N   3.05288109730110      3.92096927721095      0.00003327062607
