20
Coordinates from ORCA-job 544optt
  C   -1.04629240994134      0.53818646440832      0.00000394686155
  C   -1.02805253595133     -0.82516599999693      0.00001081499278
  C   0.12224071986940      1.33166623308978     -0.00000471851260
  C   1.39689676643232      0.69809875283009     -0.00000035013493
  C   1.42511018327869     -0.74865636002845     -0.00000017768197
  C   0.21275856098096     -1.46924237254181      0.00000662662661
  C   2.64610073305725      1.38023032758115      0.00000482304358
  C   2.66433349404689     -1.42208380997092     -0.00000657540842
  C   3.87947216567399     -0.73069560607986     -0.00001078269156
  C   3.84426976239510      0.63228240393008     -0.00000413615557
  F   -2.23262980421464      1.18034176739772      0.00000369200376
  C   -0.08564856442328      2.73833217089117     -0.00002837088046
  H   -1.96172007718841     -1.37052874190972      0.00001771153030
  H   0.25871867117742     -2.55086877418743      0.00000926992915
  C   2.80211386301166      2.79363538066186      0.00002858827524
  F   5.00363440466861      1.32134557540350     -0.00000405471304
  H   2.66001221286397     -2.50469727571860     -0.00000887785914
  H   4.83361796943379     -1.23945666928847     -0.00001766711761
  N   -0.34870322679214      3.85991626468779     -0.00004848087981
  N   3.02640711162103      3.92364026884069      0.00004871877214
