20
Coordinates from ORCA-job 545optt
  C   -1.07978323759864      0.58943409511774     -0.00000242247739
  C   -0.99004400626772     -0.77381146449899     -0.00000638041331
  C   0.11759430049448      1.35149586756363      0.00000317233664
  C   1.39669562423675      0.72799726896878     -0.00000024566598
  C   1.42458854650917     -0.71949414487064      0.00000014357795
  C   0.21687977017964     -1.44624140106661     -0.00000405624969
  C   2.65093531813391      1.40020088525310     -0.00000393559979
  C   2.65928140489362     -1.39961578234425      0.00000488266039
  C   3.83937725275592     -0.68121231264474      0.00000564759576
  C   3.87649810056243      0.68446088219352      0.00000082793369
  H   -2.04124136502489      1.08125753820755     -0.00000181425708
  C   -0.08018502874248      2.76107668999393      0.00001700466676
  F   -2.12874061206029     -1.50992357487745     -0.00001176963372
  H   0.23069142230714     -2.52760301865639     -0.00000540299538
  C   2.79527837595269      2.81621567739090     -0.00001626218188
  H   4.81849957225139      1.21256524174918     -0.00000052769686
  H   2.68647166664301     -2.48072918261994      0.00000772819099
  F   5.00624840494205     -1.37179119731015      0.00001125544161
  N   -0.36440627136127      3.87854936865444      0.00002823205967
  N   3.03802076119303      3.94344856379637     -0.00002607729236
