20
Coordinates from ORCA-job 547optt
  C   -1.07658198984147      0.59883022080450      0.00000157297273
  C   -1.03796031380189     -0.77192972505549      0.00000341738706
  C   0.12118566913191      1.35516368341317     -0.00000137561408
  C   1.39703821526744      0.72512427565033     -0.00000028573784
  C   1.42477418611893     -0.72465523940160     -0.00000027532412
  C   0.19509277131891     -1.40803338256937      0.00000229770503
  C   2.64790416880658      1.40353680235333      0.00000204571331
  C   2.67966287250471     -1.36046867914489     -0.00000279206939
  C   3.88751153310735     -0.67779718646212     -0.00000336900815
  C   3.87373523040704      0.69351178720295     -0.00000012511540
  H   -2.02046246930263      1.12567493958241      0.00000071453772
  C   -0.07082409896790      2.76570028395269     -0.00000865892876
  H   -1.93779203133651     -1.37178979234590      0.00000566460970
  F   0.18669703914843     -2.76371226421062      0.00000391755484
  C   2.78551065799451      2.82038163166119      0.00000795812522
  H   4.79675209387141      1.25610740750304      0.00000066393127
  F   2.73945080820810     -2.71482533456961     -0.00000514108986
  H   4.80970991483302     -1.24269588965499     -0.00000501374318
  N   -0.36154934686824      3.88151560617743     -0.00001480154146
  N   3.03280508940028      3.94664085511359      0.00001358563540
