20
Coordinates from ORCA-job 548optt
  C   -1.04735368744193      0.52360086753628     -0.00000181753886
  C   -0.99147119872221     -0.84615694612339     -0.00000127479118
  C   0.12573774277990      1.32529969126443      0.00000139028006
  C   1.41159342700261      0.69882178407849      0.00000210325872
  C   1.45492928450927     -0.74505816721978      0.00000097546699
  C   0.24938550596069     -1.47829284905930      0.00000039949007
  C   2.65972998370339      1.37718017936239     -0.00000136531963
  C   2.69848876417382     -1.40915705485526      0.00000164683294
  C   3.90022069152591     -0.70810560562890      0.00000082875513
  C   3.88527134743592      0.66678130123511     -0.00000099964971
  Cl  -2.60860518246076      1.29153523585050     -0.00000494524989
  C   -0.04571149636674      2.73494070393941      0.00000520912513
  H   -1.91001501861260     -1.41676240731870     -0.00000307760656
  H   0.30360414923582     -2.55977049519678      0.00000040898175
  C   2.81386447667159      2.79600609580245     -0.00000332142604
  H   4.80526325042429      1.23530703831704     -0.00000197376231
  H   2.69611187956905     -2.49272068675088      0.00000202159009
  H   4.84369016563502     -1.23987617395189      0.00000114802459
  N   -0.26087380461162      3.86761911898659      0.00000832194457
  N   3.08878971958854      3.91506836973220     -0.00000567840587
