20
Coordinates from ORCA-job 549optt
  C   -1.05105606743394      0.59287965382880     -0.00000330408895
  C   -0.97505671427016     -0.77420027090307     -0.00002121829963
  C   0.14639669576895      1.35596595399017      0.00001422953230
  C   1.42473505616347      0.73030553419986      0.00000028846944
  C   1.45324942150057     -0.71437080082049     -0.00000299242478
  C   0.24089163760928     -1.44364270319687     -0.00001924848165
  C   2.68005070070711      1.39853742259997     -0.00001632502293
  C   2.68912760877713     -1.38839956102987      0.00002088956745
  C   3.89806779307216     -0.69649389497955      0.00002670709346
  C   3.89712474258216      0.67880400165737      0.00000526198092
  H   -2.00545798175772      1.09816398937093      0.00000447692337
  C   -0.05128516247777      2.76490904770172      0.00006173994732
  Cl  -2.45193518417673     -1.71213425464562     -0.00004716065269
  H   0.26959818772461     -2.52451086041471     -0.00002780678045
  C   2.82732100331935      2.81693549215689     -0.00006401600665
  H   4.82333699560354      1.23744379887358     -0.00000211543691
  H   2.67936205024255     -2.47175759900279      0.00002863490983
  H   4.83611621066594     -1.23754517654188      0.00004424618856
  N   -0.33396631551566      3.88305672019500      0.00010089295990
  N   3.07602932189512      3.94232350696056     -0.00010318037789
