20
Coordinates from ORCA-job 554optt
  C   -1.07333192186347      0.54023567634766      0.00000218076093
  C   -1.01748581566504     -0.83023672801935      0.00001578377624
  C   0.09793530128428      1.33866427499071     -0.00000930710441
  C   1.38355871215391      0.71506727936862      0.00000142679656
  C   1.42566794059262     -0.72857680254167      0.00000197463577
  C   0.22406986133189     -1.46031013709552      0.00001221977633
  C   2.63007445667254      1.39578228594028      0.00000867284975
  C   2.66831660864700     -1.40105117222793     -0.00000922363691
  C   3.85214175499505     -0.67971657264157     -0.00001524172886
  C   3.86115197003660      0.68985183235229     -0.00000526169929
  Cl  -2.63323345817648      1.30721746018991     -0.00000247874497
  C   -0.07465197842966      2.74998941461846     -0.00004179910687
  H   -1.93503260594583     -1.40190850501301      0.00002611353087
  H   0.27850026268071     -2.54159734407230      0.00001878164185
  C   2.78177570001536      2.81336825720098      0.00004329794247
  H   4.78945978474426      1.24135487052766     -0.00000313892761
  H   2.68691618813005     -2.48216537683124     -0.00001328586138
  Cl  5.37044536714392     -1.54539499965919     -0.00003290127135
  N   -0.29209849593227      3.88134014503987     -0.00006841372362
  N   3.04848036758448      3.93434614152531      0.00007060009447
