20
Coordinates from ORCA-job 556optt
  C   -1.07633577975904      0.60832328539416     -0.00000214821966
  C   -1.00177927506246     -0.75933760114127     -0.00001335714668
  C   0.11828190017495      1.36924691218114      0.00001097964113
  C   1.39655887651094      0.74659310057287      0.00000112214255
  C   1.42422912374070     -0.69798467621463     -0.00000190208310
  C   0.21608511487831     -1.42601168623713     -0.00001182807638
  C   2.65014619359119      1.41759979448446     -0.00001029256021
  C   2.65932595532958     -1.37951218424307      0.00001280467803
  C   3.85080676634641     -0.66684100893110      0.00001541900573
  C   3.87294753783014      0.70277271401224      0.00000049949594
  H   -2.03050785710469      1.11414963258524      0.00000247785740
  C   -0.08052809632509      2.77993403596758      0.00004134647504
  Cl  -2.47576985187557     -1.69702520183196     -0.00003277426745
  H   0.24557681101710     -2.50679285561913     -0.00001690467036
  C   2.79464351211086      2.83483481629730     -0.00004047673071
  H   4.80702801909201      1.24477208632168     -0.00000523496546
  H   2.67091039080007     -2.46063647130480      0.00001906218904
  Cl  5.36026949577854     -1.54665403011973      0.00003037973311
  N   -0.36449236313028      3.89687223254666      0.00006716208659
  N   3.03525352605632      3.96193710527949     -0.00006633458458
