24
Coordinates from ORCA-job 559optt
  C   -0.94198455361061      0.52223677087991      0.00000315467487
  C   -0.85506918169319     -0.85299931024671     -0.00001550921161
  C   0.25133333972286      1.30880749996017      0.00003370681444
  C   1.54144002466772      0.69773804127093      0.00000527791223
  C   1.59559449486242     -0.74503305717812      0.00000233162284
  C   0.39362802695390     -1.47610033172511     -0.00000988146461
  C   2.78489523973935      1.38501501740453     -0.00002446240914
  C   2.84487781697460     -1.40238458196678      0.00001934514370
  C   4.04069030202762     -0.69242279120572      0.00001862632424
  C   4.01631179087967      0.68319350936360     -0.00000357641036
  S   -2.47686072898857      1.40007502530872      0.00002744641685
  C   0.07332274838894      2.71837828785552      0.00011176539414
  H   -1.74358978017195     -1.46693380080127     -0.00002889197434
  H   0.45067185025256     -2.55808229754987     -0.00001594932270
  C   2.92590413021079      2.80466028895624     -0.00009433460059
  H   4.93247817587992      1.25794268088463     -0.00001394650654
  H   2.84977813949395     -2.48607353793281      0.00002803683899
  H   4.98827939429421     -1.21713055730002      0.00003504627039
  N   -0.18197672061219      3.84360727289602      0.00017822297203
  N   3.18545899592696      3.92771487785723     -0.00015597025804
  C   -3.67105008338478      0.05937868221479     -0.00001840027709
  H   -4.64944715880987      0.53731022661382     -0.00003713245355
  H   -3.57759502540631     -0.56018276775496      0.89169572299735
  H   -3.57755123759802     -0.56016514780475     -0.89174062849353
