28
Coordinates from ORCA-job 564optt
  C   -1.21704091389138      0.31640628175742     -0.22503191145630
  C   -1.09836743951187     -0.96460930567755      0.27726572271672
  C   -0.04176805866658      1.08762029146985     -0.44006673090483
  C   1.24249168517964      0.59588630546854     -0.05925520144775
  C   1.33866428099857     -0.78086334028011      0.36791740153620
  C   0.14996354844609     -1.52028892926738      0.52854690678745
  C   2.43545133895019      1.36953763025688     -0.07342596477049
  C   2.62475440220941     -1.34346117960652      0.61126200425882
  C   3.78029712341846     -0.55992811780113      0.49760658758807
  C   3.69031938943378      0.77279385934875      0.18531263368952
  S   -2.82591725468899      0.89587945381867     -0.65949148269272
  C   -0.17998721527024      2.31624091851201     -1.14381567520424
  H   -1.99710217071390     -1.53882603145328      0.46232164160118
  H   0.21828995040135     -2.53009999882359      0.90864017361262
  C   2.45854486891879      2.78490542564755     -0.23266316414675
  H   4.57603587294162      1.39218886629069      0.14351992200754
  S   2.81118025806303     -3.03678650659424      1.06896252094066
  H   4.74469291366862     -1.01659691446235      0.67835059689262
  N   -0.35598953663579      3.28026902710194     -1.75118118952320
  N   2.58755581459101      3.92898668670303     -0.29074560776347
  C   -2.98497097980281      2.37817585519360      0.36989261832762
  H   -2.79311152545014      2.13004584814915      1.41224814848677
  H   -4.01524569519529      2.71575654047761      0.26102867518829
  H   -2.31177329122877      3.16299080253505      0.03277084824907
  C   2.41834142826779     -3.85342453513496     -0.50248638774721
  H   2.44937619644643     -4.92902827439035     -0.33003826410063
  H   3.15148845418264     -3.58238733705616     -1.25987871641959
  H   1.42172655493828     -3.56825332218308     -0.83755610570601
