28
Coordinates from ORCA-job 566optt
  C   -0.80503907759912      0.69130525613133     -0.55119173810283
  C   -0.74226669818531     -0.68604621466656     -0.43936083664719
  C   0.38187038993805      1.46297991107075     -0.38417450222660
  C   1.60719491039906      0.84497113342675      0.00237579290547
  C   1.65578273376606     -0.59288880434529      0.00757503685347
  C   0.46957446385792     -1.32272589662588     -0.21023071999758
  C   2.78801539186283      1.54712845474305      0.38402115880848
  C   2.88863764047473     -1.23908907899879      0.22985289918744
  C   4.05534861305339     -0.52005171853156      0.45011677877898
  C   4.02526754675698      0.85920793422370      0.55150337441004
  S   -2.34762276286116      1.42000717909779     -0.99642069257362
  C   0.33449900229445      2.83742468197378     -0.74629048520939
  H   -1.65300453754301     -1.26044303941421     -0.55098656909740
  H   0.51519931364075     -2.40423598068313     -0.16560642049231
  C   2.74078862299127      2.92281142159078      0.74107476745584
  S   5.51656056045558      1.69429316371285      0.98431970388745
  H   2.91607965033165     -2.32153867509668      0.19386249359227
  H   5.00301126914712     -1.03101737629279      0.56257523473704
  N   0.24752936636872      3.93151558855203     -1.09999926775643
  N   2.75197224834724      4.02123759671137      1.09200813115682
  C   -2.63831389177773      2.56215666399445      0.37988401785452
  H   -2.58219599583398      2.02753081802944      1.32645762250588
  H   -3.64541995996183      2.95525389804470      0.24354582176790
  H   -1.92634267055855      3.38419135971240      0.36274008730340
  C   5.71493706353142      2.85435170792840     -0.39316156691406
  H   5.68298284035506      2.31786576316926     -1.33984165433896
  H   6.69556544554154      3.31265735868066     -0.26814881854277
  H   4.95050852120674      3.62754689386132     -0.36649964930588
