21
Coordinates from ORCA-job 571optt
  C   -1.05756963094208      0.57816044811710      0.00000037401763
  C   -0.99079078817810     -0.79660718484537      0.00000141741832
  C   0.14155756421431      1.34633103686207     -0.00000028815934
  C   1.41517138578814      0.72517189570782     -0.00000018893671
  C   1.44338877690978     -0.72103814484490      0.00000008249094
  C   0.22986199354807     -1.44979986393244      0.00000033214655
  C   2.67593312278650      1.39464922813958      0.00000089504782
  C   2.67833835505275     -1.39292978108026     -0.00000134284925
  C   3.88958253090184     -0.70239820230334     -0.00000153352815
  C   3.88959210794121      0.67346080701788     -0.00000058581576
  H   -2.01146642369251      1.09158192254589      0.00000108302700
  C   -0.06200133321167      2.75422652411077     -0.00000466322379
  O   -2.12781950943368     -1.57422620759974      0.00000282570286
  H   0.25329534887526     -2.53175180440954      0.00000071502172
  C   2.82265733327663      2.81168942846819      0.00000433611365
  H   4.81701830856419      1.23054730068393      0.00000132110158
  H   2.66829793185896     -2.47654510938197     -0.00000216968968
  H   4.82707372898246     -1.24451550277230     -0.00000292066534
  N   -0.35946757823916      3.86905935721350     -0.00000839860204
  N   3.06536802161973      3.93909099348424      0.00000698883329
  H   -2.88860124662261     -0.98663714118112      0.00000172054869
