21
Coordinates from ORCA-job 572optt
  C   -1.06664265545810      0.60165802836969     -0.00000207784699
  C   -1.02163330539408     -0.77332913013141     -0.00000508260080
  C   0.12046593658179      1.36234461272360      0.00000290388664
  C   1.39839399434343      0.73170567902756      0.00000067285460
  C   1.43118880025680     -0.71021138429903      0.00000156335938
  C   0.21290018611241     -1.41521707972253     -0.00000195974543
  C   2.65391334154884      1.40162018920152     -0.00000243708029
  C   2.66497447212150     -1.40372197528606      0.00000490036940
  C   3.87203839782188     -0.70133719945073      0.00000570855181
  C   3.87542708882953      0.67056701439370      0.00000169562893
  H   -2.01501026300690      1.12124813468149     -0.00000211131167
  C   -0.07962669369585      2.77337250519516      0.00001491763047
  H   -1.93763516753496     -1.35528244028277     -0.00000933616758
  O   0.29484126793333     -2.79252927566812     -0.00000324293039
  C   2.80107522975900      2.81499484621540     -0.00001530120855
  H   4.80331299082445      1.22665361558418      0.00000026701814
  H   2.65104480472155     -2.48332229570527      0.00000681913139
  H   4.81132008466122     -1.24144419167986      0.00000923149557
  N   -0.37449336861509      3.88791367600480      0.00002535807559
  N   3.04861623529011      3.94254858364055     -0.00002624312351
  H   -0.59932137710088     -3.14317191281187     -0.00000624598673
