22
Coordinates from ORCA-job 573optt
  C   -1.05452005018001      0.43377210368588      0.01026761528007
  C   -0.96333386117940     -0.93468823220632      0.03998001811636
  C   0.11602759655951      1.24572384377887     -0.01600740222524
  C   1.41001427122244      0.65090325732457     -0.00890446423420
  C   1.47388213059385     -0.79182876526739      0.01726322323562
  C   0.28596208633075     -1.54846978743084      0.04217986688955
  C   2.63936396704107      1.35883801741301     -0.02443420531391
  C   2.73798524088142     -1.42413422823708      0.01687612675967
  C   3.92150348996537     -0.69397043681963     -0.00537227677112
  C   3.88267089307074      0.68220223933902     -0.02515058469838
  O   -2.31574809377396      0.97689611805913      0.00585096500181
  C   -0.17073651359781      2.63001917368242     -0.05634135780295
  O   -2.10057692978321     -1.70335938458256      0.06580410884260
  H   0.33626750849086     -2.62926188157812      0.06386902260973
  C   2.71158956198275      2.78094324170476     -0.03426899074627
  H   4.79076577440281      1.26926710886421     -0.03936875737446
  H   2.76495179063609     -2.50717321383347      0.03458434008312
  H   4.87550020062780     -1.20715266963428     -0.00594536386473
  N   -0.62668187396361      3.69365450527365     -0.08556943602637
  N   2.86404695092281      3.92408649977633     -0.03078690845692
  H   -2.24546278128436      1.94151791376456     -0.02149678599475
  H   -2.84885135896596     -1.09485542307676      0.05697124669078
