22
Coordinates from ORCA-job 574optt
  C   -1.05016800060055      0.57491048644513      0.00000242211357
  C   -1.00579758784920     -0.80052604639453      0.00000901670073
  C   0.12185730199630      1.35198198799672     -0.00000546131312
  C   1.40819569803219      0.71712836136659     -0.00000012912891
  C   1.44821887533309     -0.72586744911699     -0.00000122979576
  C   0.24526282174305     -1.43225185249668      0.00000530485597
  C   2.65052884614929      1.39160354899881      0.00000680111401
  C   2.69715813834192     -1.41305033055842     -0.00000903712463
  C   3.89031140770761     -0.70163954537222     -0.00001017236996
  C   3.88424461830129      0.67376381978867     -0.00000240412370
  O   -2.24028625687948      1.24629972746407      0.00000075751152
  C   -0.07670317947147      2.76005602219928     -0.00002803356014
  H   -1.92270304046904     -1.38197230629379      0.00001584020378
  O   0.32162192074611     -2.80845002875198      0.00000733907465
  C   2.79629634065502      2.80816917414755      0.00002753368246
  H   4.80564229380301      1.23937770651931      0.00000005314403
  H   2.69199405651418     -2.49278870243125     -0.00001219092149
  H   4.83470004338368     -1.23344111378461     -0.00001724283273
  N   -0.32553629600928      3.88509973010318     -0.00004733064986
  N   3.05913172970449      3.93132237900168      0.00004605410652
  H   -2.95174247928449      0.60058335865392      0.00000627398388
  H   -0.57186725184773     -3.15985892748447      0.00000583532916
