24
Coordinates from ORCA-job 591optt
  C   -1.06415791170076      0.63449760238715     -0.14706782919655
  C   -1.03060115297946     -0.72617155559613     -0.00325786841207
  C   0.13680954163367      1.38313141563726     -0.14733637623872
  C   1.39689172425094      0.73931322584620     -0.00019574581003
  C   1.42440451284327     -0.70942973227025     -0.00022707536692
  C   0.18944072740778     -1.40802815519769      0.09403991128822
  C   2.63136931075813      1.43059580121414      0.14724263279700
  C   2.68533989251350     -1.36047416819231     -0.09421453401656
  C   3.87840400236779     -0.63273090953755      0.00423453700126
  C   3.86007167774897      0.72827923955673      0.14809973169898
  H   -2.00374065153076      1.15846456673180     -0.25852732406902
  C   -0.01072326950363      2.77322464231066     -0.40448063173871
  H   -1.95379824485683     -1.29483035222880      0.03345953347425
  N   0.14273659341567     -2.81772430033998      0.30219633454071
  C   2.72499630240041      2.82545400676378      0.40390082461678
  H   4.77902533026003      1.28752747547500      0.26017578613136
  N   2.78582225145822     -2.76728495444649     -0.30289418633581
  H   4.82261895962246     -1.16579078070828     -0.03204178145577
  N   -0.24531338338772      3.87313104425632     -0.66356160493079
  N   2.91576426156139      3.93405916928421      0.66201843912070
  H   -0.73698566247257     -3.07751191858345      0.72640436364965
  H   0.90438504897538     -3.14539302149184      0.88241870328262
  H   2.03769717418956     -3.12345651168686     -0.88390262530285
  H   3.67515296502448     -2.99319182918360     -0.72648321472770
