28
Coordinates from ORCA-job 596optt
  C   -0.95870072106125      0.48990722748018      0.41220339898015
  C   -0.86646837530010     -0.86616146048206      0.20219501777639
  C   0.18798899893590      1.31366038578385      0.44109465656971
  C   1.47887382404702      0.75486838422298      0.18443976205294
  C   1.57595402659687     -0.67118451704682      0.01460322514324
  C   0.39549184186177     -1.44182767666971      0.03242366495147
  C   2.68326987649261      1.50015673176598      0.08976976439564
  C   2.84114777975027     -1.28443786530871     -0.16565704282962
  C   4.00487554564544     -0.51615537941182     -0.19142279556043
  C   3.93895559080411      0.84989232841981     -0.07486256294266
  O   -2.20469681603658      1.02638619495565      0.64242347681274
  C   -0.02225951524929      2.66250381282411      0.83541198737611
  H   -1.77966836371119     -1.44191568450887      0.19732068754324
  O   0.57517375392046     -2.79297689195844     -0.14793848920230
  C   2.73162013612483      2.92112948226378      0.07283801271962
  H   4.83074424148243      1.46018404760834     -0.12001128819141
  H   2.88499856331104     -2.35739456877982     -0.27419929405709
  H   4.96669172653997     -0.99942449079585     -0.31573680969770
  N   -0.28991731527582      3.72919145860026      1.18248410365778
  N   2.88757411618458      4.06269761157483      0.00660422914120
  C   -2.70887224099841      1.80560478579400     -0.42792359038299
  H   -2.07261323255438      2.66890197050302     -0.63037757555503
  H   -3.69533204324118      2.15288155337930     -0.12424514225033
  H   -2.79649030753646      1.19377406021435     -1.33206984421949
  C   -0.56556589776771     -3.60362401321444     -0.12903440938824
  H   -1.09609222557286     -3.53070113264588      0.82621692997510
  H   -0.22100902662118     -4.62652344715067     -0.27066507201588
  H   -1.25911394077091     -3.34356290741732     -0.93587500080215
