17
Coordinates from ORCA-job 5optt
  C   -3.18625041490800      0.47206914747933      0.00000046908005
  C   -3.19879457794728     -0.92213837733249      0.00000074559246
  C   -2.00630766765885      1.21303901601464     -0.00000007591675
  C   -0.74111659145891      0.53113182019828     -0.00000027650272
  C   -0.75016160286912     -0.85349816174831      0.00000022506616
  C   -1.92315555693828     -1.59612136871264      0.00000081349922
  H   0.18078102764048      1.09505097820384     -0.00000061240158
  H   0.20060337575546     -1.37810067766407      0.00000039351383
  H   -4.13366425763342      1.00240751127023      0.00000053453592
  C   -2.06720295295926      2.62955212343658     -0.00000060641319
  C   -4.45246437307199     -1.61829298516758      0.00000087351074
  H   -1.88116324721930     -2.67642906371265      0.00000154027983
  N   -2.10140089848002      3.78653136594578     -0.00000119023695
  C   -4.64492291786025     -2.96050311842408     -0.00000077331973
  H   -5.33305675794428     -0.97893829258907      0.00000193369809
  H   -3.81902221918507     -3.65992479113432     -0.00000269047522
  H   -5.64311036726191     -3.37835512606349     -0.00000130351012
