28
Coordinates from ORCA-job 600optt
  C   -0.74587745471651      0.19360469303523      0.28120047691145
  C   -0.54538040008004     -1.17005693487344      0.26164265769730
  C   0.32607567582196      1.09286387895920      0.16911197085092
  C   1.66761936101236      0.62079582536296      0.02533054623315
  C   1.86856099812243     -0.80297812319944      0.01227113128822
  C   0.75537565618386     -1.65811621644495      0.12982760005810
  C   2.82371305772492      1.43213369023264     -0.10609879615249
  C   3.17341323309253     -1.35298546358788     -0.11710454758268
  C   4.27308759135853     -0.50917409595569     -0.23450009650383
  C   4.12130624948994      0.85866324754142     -0.23186395315344
  H   -1.74548469486746      0.59307969037721      0.38694671436691
  C   -0.04236572121109      2.46862583034408      0.21933842816071
  H   -1.39223906078348     -1.83416721290125      0.34981696101303
  O   1.04921925044022     -3.00308736136127      0.10244609619429
  C   2.79424112510335      2.85240902351840     -0.13072819465075
  H   4.98747014858720      1.49706408045176     -0.32739124626443
  H   3.27327220445753     -2.42489830936277     -0.12042037034483
  O   5.56181020894038     -0.97252767624843     -0.36024251877555
  N   -0.46616291269066      3.53919626189265      0.27787006209052
  N   2.89315248869786      4.00189629414108     -0.16939874416256
  C   -0.01692965654285     -3.89997957423735      0.23126514400745
  H   0.41301115195063     -4.89961318456271      0.19550453103357
  H   -0.73846800191469     -3.79016318651166     -0.58539697005207
  H   -0.54213484047137     -3.76854838330519      1.18334258144024
  C   5.75162135190935     -2.36122219278389     -0.35948127827778
  H   6.82320635149933     -2.52529905993927     -0.46156779176184
  H   5.23204660268872     -2.83959355716519     -1.19583445184890
  H   5.40399003619683     -2.81484198341615      0.57409405818527
