36
Coordinates from ORCA-job 605optt
  C   -0.83236615780311      0.49466283883032      0.24722773367247
  C   -0.74726647666088     -0.85835510752110     -0.01482510411510
  C   0.36387069520819      1.26245954407685      0.34005246529934
  C   1.62875991370872      0.68658418095754      0.01323683214714
  C   1.69337984157502     -0.73442089546615     -0.22019951549283
  C   0.49568486861421     -1.48724106851853     -0.19026379584672
  C   2.83969773121157      1.41882721317373     -0.09605630574957
  C   2.94689963725559     -1.34257219861324     -0.47187379557086
  C   4.12223936654906     -0.59543923317901     -0.49290910751755
  C   4.07935917126731      0.76708481440350     -0.31311629913766
  N   -2.06919227355748      1.13990705569355      0.48119065339953
  C   0.25767498941761      2.55335644479272      0.92028537680371
  H   -1.65092990483950     -1.44574834310163     -0.07677315499662
  N   0.58998523854609     -2.90494525042880     -0.35641658412981
  C   2.89250244074132      2.84257392434358     -0.11735920176201
  H   4.97697170483789      1.36849444978766     -0.36399968746635
  H   2.97089556331125     -2.40333066376182     -0.67645110930042
  H   5.07104465959584     -1.08577034558881     -0.67527109737728
  N   0.10548104168904      3.57509503704552      1.43508364711261
  N   3.04024867903574      3.98259081707548     -0.20918567195356
  C   -2.41103016646945      2.19400475307387     -0.46151652200585
  H   -3.21383995569829      2.80490466046873     -0.04447672662510
  H   -2.75129373462624      1.77186520152173     -1.42137244307950
  H   -1.55780317860135      2.83936089637508     -0.64557188952431
  C   -3.20276836019198      0.28872840346995      0.73914356081639
  H   -4.03292545536942      0.90822125474910      1.08310759288489
  H   -2.95994407539034     -0.43395265501615      1.51765088441965
  H   -3.54271158434174     -0.26150145299028     -0.15536610888874
  C   -0.57154374821706     -3.55727577276621     -0.91116004090966
  C   1.04255819209946     -3.58159791602492      0.84825343546789
  H   -0.90117933951020     -3.02852828540147     -1.80513531823877
  H   -1.42011007291298     -3.61327121654980     -0.20797481111884
  H   -0.30670545325748     -4.58113400709863     -1.18588658340415
  H   1.92980923778971     -3.08553143960547      1.23921908215642
  H   1.29432678552949     -4.62029696786327      0.61653379297488
  H   0.26767017946437     -3.57694867034353      1.63218581705633
