36
Coordinates from ORCA-job 606optt
  C   -0.93531780207935      0.59812623188835      0.32561092399929
  C   -0.99358830569482     -0.77857885345087      0.35680665558471
  C   0.34416111421819      1.23525209228144      0.27436899785350
  C   1.54286369249324      0.47605014023591      0.10376272402517
  C   1.44469112358195     -0.96012901362443      0.17275484603298
  C   0.17790807911412     -1.54744724058478      0.33008847360994
  C   2.82945580547581      1.04157084717929     -0.09243004674335
  C   2.63120910123243     -1.74877987215757      0.09766868421258
  C   3.88101086842044     -1.13875185018176      0.00139161713424
  C   3.98461522767076      0.23186663002762     -0.09576818685929
  N   -2.08929793225225      1.41259580896676      0.39990703326498
  C   0.38232567843811      2.62031017807081      0.57814936109047
  H   -1.94890056547478     -1.28160143125110      0.41394148649333
  H   0.11358875270398     -2.62089456163913      0.43483400059509
  C   3.04994002394046      2.41725433883864     -0.39523390518816
  H   4.95024832468983      0.70485378797033     -0.21198160819230
  N   2.48824776932588     -3.17027086708467      0.12995652361601
  H   4.78065499916931     -1.73947725776402     -0.02344686684652
  N   0.34628325391285      3.73764589432567      0.86688990012939
  N   3.33468581654313      3.48984397817633     -0.70738400153230
  C   -2.31556287732373      2.27729900173359     -0.74770382468935
  H   -3.04635924984083      3.04393741379193     -0.48336786010559
  H   -2.70142685431207      1.70329070401991     -1.60628622195119
  H   -1.39741439472404      2.77520884643279     -1.04362534305433
  C   -3.30920477138571      0.76029129256853      0.80339922468316
  H   -4.06583251004770      1.52335095267740      0.99470575596596
  H   -3.14572224361871      0.19218741428470      1.71861493808341
  H   -3.70763416975035      0.07663169108952      0.03401876492392
  C   2.01902196474647     -3.71888049328611     -1.13253460963509
  H   1.71492112825836     -4.76001118094410     -0.99349879726844
  H   2.80490395611252     -3.68491119417009     -1.90456618463083
  H   1.16278843391841     -3.14839761289208     -1.48859537806885
  C   3.62760647386434     -3.90831556984148      0.61996571806008
  H   3.32962410893932     -4.94444372090400      0.79756044750452
  H   3.97237939604305     -3.47598971236759      1.55887212553418
  H   4.47446658369133     -3.92449681241569     -0.08682536763129
