36
Coordinates from ORCA-job 607optt
  C   -0.73653742627256      0.57803956673683      0.11626573406871
  C   -0.77863691528246     -0.76251998429397     -0.22063588690428
  C   0.52928038682156      1.19874356851322      0.32669344438146
  C   1.74900529111389      0.49723858120066      0.07666746655209
  C   1.66730389666507     -0.91522591218100     -0.20381887717286
  C   0.39969267438869     -1.50451340009504     -0.33692880729645
  C   3.04194285042158      1.06663509630850      0.08883225427080
  C   2.85087896178684     -1.66873102808632     -0.35499824302075
  C   4.11887394578012     -1.09345469980777     -0.24277064722253
  C   4.21302746269516      0.26891492507861     -0.02922100726204
  N   -1.90813804053829      1.35166329373890      0.30324307126235
  C   0.52724342744719      2.47859244169761      0.94207550425776
  H   -1.72820678578542     -1.25122359017512     -0.38847592782284
  H   0.34567993003037     -2.56215444736793     -0.56719843897569
  C   3.27634879213490      2.47171333237842      0.12362761220962
  H   5.16698245181790      0.77014748427838      0.03195774297270
  H   2.76074103756610     -2.72156887130846     -0.59418121489054
  N   5.26623704329364     -1.92820436203440     -0.38986167276262
  N   0.46137255223819      3.49996468897436      1.47527627644145
  N   3.57429748228490      3.58533314023837      0.09089305336804
  C   -2.06973341094686      2.46438079538260     -0.61994529887483
  H   -2.83451079828662      3.14270426795485     -0.23679735518489
  H   -2.37971360364489      2.11070759991991     -1.61712322838739
  H   -1.14371886772330      3.02241607729724     -0.71838518786376
  C   -3.14150229332979      0.61996063980887      0.44773363054194
  H   -3.92172515388395      1.31132502765289      0.77147623404758
  H   -3.02931599499551     -0.15907910683674      1.20107377667251
  H   -3.47838618819627      0.15076784285264     -0.49273716628256
  C   5.34017083614997     -3.00550176700684      0.58150459415440
  C   6.53326347342833     -1.24343147046558     -0.49213768965035
  H   6.82418725579851     -0.73697326637416      0.44306402092921
  H   6.49312143049275     -0.49974976679781     -1.28711518077683
  H   7.30811570921607     -1.97249546153127     -0.73587353164388
  H   4.39473183775497     -3.53900516340476      0.63105391097620
  H   5.57387193687816     -2.62882230832459      1.59090026747614
  H   6.12183481268077     -3.70871376392112      0.28587676741204
