36
Coordinates from ORCA-job 608optt
  C   -0.76086718112971      0.81840896465699      0.16013368013431
  C   -0.71809298305857     -0.56115720429191      0.08967495374836
  C   0.46887233669815      1.54752130599503      0.18413682047223
  C   1.71973357392309      0.89451867039507      0.00058772050947
  C   1.73172670838831     -0.54527014786912      0.00445764446942
  C   0.50535081780496     -1.23382749692264      0.05895165417309
  C   2.95951793314245      1.56728691421890     -0.18643451347809
  C   2.96942421496422     -1.21360353270722     -0.04626895491511
  C   4.18146764416179     -0.52080466572396     -0.08070569724319
  C   4.20123016615631      0.85891065927242     -0.15847301460974
  N   -1.97333322802736      1.54192764810659      0.26045313855935
  C   0.40856432127977      2.90914623079468      0.58554200875959
  H   -1.63566223456593     -1.13273491399582      0.06744854353646
  H   0.52237042010141     -2.31731479837500      0.04035783152745
  C   2.99717115920335      2.92764409521522     -0.59497729988318
  N   5.40139740120065      1.60194613521036     -0.26284175406527
  H   2.97046182094175     -2.29710631907777     -0.02184121410659
  H   5.10854120500502     -1.07672070307368     -0.05539189493910
  N   0.30972324228955      3.99389970078635      0.96637274883417
  N   3.07816615198164      4.01185130940081     -0.98154707496880
  C   -2.23914180972855      2.46236446044648     -0.83430417048614
  H   -3.03110008942442      3.15396332915626     -0.54051024833242
  H   -2.56111808929210      1.92086592026280     -1.73905706381272
  H   -1.35426290128694      3.04484228626343     -1.07242872633387
  C   -3.14929333650114      0.77688299238090      0.58914266938409
  H   -3.96352955554106      1.46752612589962      0.81616366000282
  H   -2.96059453046746      0.15759151665177      1.46554214621170
  H   -3.48346051050353      0.12321247169353     -0.23514643562279
  C   5.65190521290675      2.53333683017980      0.82620059899450
  H   6.43023898980523      3.23801885456495      0.52714967033567
  H   5.98548194349200      2.00302305388852      1.73337064575205
  H   4.75665943892923      3.10039947230792      1.06277890359617
  C   6.59002444392289      0.85525858602738     -0.58799574085938
  H   7.39226153171943      1.55844488299367     -0.81927342990471
  H   6.41143564160796      0.22811530753999     -1.46092835079958
  H   6.93569012990068      0.21189205772759      0.23965054535974
