23
Coordinates from ORCA-job 612optt
  C   -1.14639451293856      0.55407405900301      0.09184028058708
  C   -1.04096694924923     -0.83987633063309      0.16015608920693
  C   0.05446498843072      1.32590467692520     -0.01888202400644
  C   1.33083758497572      0.69890716529177      0.01402072101253
  C   1.38891759799509     -0.73949276400000      0.02603661293861
  C   0.17046674513016     -1.47709098073133      0.11123939313163
  C   2.58488290963707      1.38007797623476      0.02585268873683
  C   2.61714549690898     -1.39943363420780     -0.04412587655821
  C   3.82050293822251     -0.70071721575723     -0.11318185050459
  C   3.79770705797408      0.67609111769921     -0.06410006870686
  C   -2.45742368988459      1.20132823957150      0.22686200245852
  C   -0.04776593150739      2.70527202052177     -0.35603055403291
  H   -1.93441688652917     -1.43725534239385      0.30678939032846
  H   0.22563111919532     -2.55689820601978      0.17135207034199
  C   2.73199759313297      2.78651448231354      0.23489663470850
  H   4.71814742003774      1.24496821366374     -0.06941924633961
  H   2.61440150677915     -2.48343393229145     -0.04889978591629
  H   4.76232603987383     -1.22913524918550     -0.18185663235628
  N   -0.12486912462306      3.79567180567008     -0.71965364824372
  N   2.98882128985417      3.88654437596782      0.45687459739910
  O   -2.66440756687006      2.29639280073581      0.67440112012714
  O   -3.53668415051705      0.45395586603836     -0.18458400750701
  H   -3.21723147602845     -0.29345914441662     -0.69958790680540
