28
Coordinates from ORCA-job 623optt
  C   -1.14374313607564      1.52552858344572      0.17785952754768
  C   -1.42773237187648      0.32385312420296      0.77877659700759
  C   0.17313828265090      1.80909476681223     -0.26652626058301
  C   1.23796229607551      0.88389059234821     -0.06079443716495
  C   0.91489093315386     -0.35544371636909      0.60760455744007
  C   -0.42091277738788     -0.61538116324397      0.99270988174310
  C   2.59032609501541      1.06856333364585     -0.45450892998182
  C   1.92829201616416     -1.30076443418732      0.85137227600717
  C   3.24473343686358     -1.07881985798005      0.45680619280893
  C   3.57456524313056      0.08943576505987     -0.19076121883239
  C   0.33475573969053      3.07891127586471     -0.88799105023713
  H   -0.66415706931174     -1.56518426778872      1.45318960248520
  C   3.06917677259578      2.22138660323256     -1.14638631437444
  H   4.58933385407772      0.28237575117258     -0.51125122404355
  H   1.65732358572682     -2.21983127044625      1.35724670199512
  N   0.34934235128602      4.12628416302447     -1.37026352998006
  N   3.57477932493969      3.09206525847173     -1.70637263906958
  N   -2.75613588562494      0.01096148582893      1.20614253934774
  H   4.00691948860182     -1.82170247198130      0.65584570123414
  C   -3.92488163890113      0.27087167118608      0.54350458193941
  O   -4.96929311130882      0.47181415245700      1.11663313649168
  O   -3.89631575942597      0.26503700959993     -0.80320330196161
  C   -2.93791834317589     -0.50058294413495     -1.52936025674277
  H   -2.09932805132939      0.12224910145810     -1.83618294156627
  H   -3.46383768994994     -0.87911607717524     -2.40401306440155
  H   -2.56377821130300     -1.33215545476221     -0.93317298561248
  H   -1.92349819730674      2.25973265868626      0.02285393065762
  H   -2.90468717699474     -0.03002363842808      2.20335292784616
