28
Coordinates from ORCA-job 624optt
  C   -0.91911410757386      2.73233579689242     -0.36170010438837
  C   -1.59131362062641      1.64864765359687      0.14205474445465
  C   0.48654590385949      2.70546535328850     -0.51818281924436
  C   1.24317671459041      1.55984913810751     -0.15042294712516
  C   0.51696427248025      0.39724800230289      0.30927511681108
  C   -0.88867807333241      0.48692880472073      0.46312062359146
  C   2.66168136200249      1.45681159556915     -0.20231520608579
  C   1.21758629132904     -0.79226939258691      0.60480870790823
  C   2.60828771981322     -0.85891442547849      0.50319854679455
  C   3.32348787788985      0.24815367164361      0.11895156050176
  C   1.04918689395527      3.88079393304682     -1.09340313762082
  C   3.52280310229371      2.54224082050622     -0.53444322900153
  H   4.40284639505192      0.22073036675853      0.05362139948197
  H   0.66261047832657     -1.67871267024727      0.87846795925214
  N   1.38261477080328      4.87036553740846     -1.58207001696595
  N   4.31761842392580      3.34554036620537     -0.76324867173847
  N   -1.56451599619140     -0.61979609852566      1.04280511597386
  H   3.12286751711717     -1.78454029250362      0.72907221966244
  C   -2.63284051928364     -1.30203452893228      0.57734208368964
  O   -3.14399910632244     -2.24858198210913      1.14259902100993
  O   -3.08905410962781     -0.81398507382423     -0.59339510086077
  C   -4.19562656615538     -1.51613807579859     -1.13326786425485
  H   -4.44594077677443     -1.00498439376359     -2.05917553521576
  H   -5.04070214874485     -1.49543164069967     -0.44547154833827
  H   -3.93399762066112     -2.55526898791431     -1.33249565129645
  H   -1.45197752455779      3.63064175964274     -0.64169260047024
  H   -2.66331500595799      1.67727584328942      0.28230312585486
  H   -1.17022254762891     -1.02901108059556      1.87791420762026
