36
Coordinates from ORCA-job 625optt
  C   -1.03994451403566     -0.29609540385251      0.59741412045701
  C   -0.70502414709007     -1.62546339302478      0.39065574658790
  C   -0.06050946886339      0.72982817783474      0.44368667973630
  C   1.26195200642338      0.41458609277235      0.02159122880592
  C   1.56830828707283     -0.97528374952903     -0.20395538155296
  C   0.57782264727198     -1.97045206287215     -0.01029791758752
  C   2.30493090681435      1.35229331676967     -0.20241372105737
  C   2.86383293813299     -1.34248910537147     -0.60584041553112
  C   3.86790546850312     -0.39775499912131     -0.79556011049459
  C   3.59324328966634      0.93670109517988     -0.59908047733988
  C   -0.49468974075441      2.03214727386736      0.79929057493706
  H   0.82516943244873     -3.00543362281009     -0.18119632668364
  C   2.13954570047456      2.76453048068122     -0.08018203896437
  H   4.35280510738298      1.69163030218074     -0.75061267437957
  H   3.06641473866444     -2.39459694001875     -0.76501780675034
  N   -0.96368531955289      3.02778467978458      1.15005687225042
  N   2.11828696554827      3.91518829001763     -0.02794002986998
  N   -2.35684928851224      0.04872166241969      1.02049145440800
  H   4.85877008706895     -0.70833487233480     -1.10181495912771
  C   -3.45511073382842      0.10986378725446      0.20755422604616
  O   -4.52590165741800      0.56392178152072      0.53911655693107
  O   -3.23033175739295     -0.46059978284272     -0.98834751824972
  C   -4.33781686086495     -0.43178547462468     -1.87622561109000
  H   -4.00285456015028     -0.93159608315470     -2.78056532265401
  H   -4.62715395982687      0.59608060886780     -2.09180288840299
  H   -5.19287193322757     -0.95243997347131     -1.44465609063770
  H   -2.43749734441097      0.68615947328821      1.80255158797287
  N   -1.72383394390361     -2.56966569731304      0.63976814834107
  C   -1.78612161124727     -3.86381932923769      0.24281125032083
  H   -2.52698417631646     -2.16194037386363      1.08611588619779
  O   -0.92148732692831     -4.49477616902446     -0.30456079082587
  O   -2.96871523125268     -4.49076295449979      0.52452482712820
  C   -4.07843094484990     -3.76722658632216      1.01536580243132
  H   -3.90276544912902     -3.39367244947027      2.02831194446854
  H   -4.90897358473082     -4.46811485166336      1.04236822133472
  H   -4.33850402118607     -2.93315314801627      0.35696495284416
