36
Coordinates from ORCA-job 626optt
  C   -1.62010495684035      0.83198755920478      0.14718523850250
  C   -1.85593496274142     -0.52152708179085      0.21297599132070
  C   -0.28274840746871      1.32372462048630      0.10970253125098
  C   0.82861368648638      0.43612012364437      0.12614304339166
  C   0.56343018048283     -0.97794391179069      0.05893536728350
  C   -0.77975353894162     -1.40583103087223      0.14691904131481
  C   2.19065468381683      0.83769636273602      0.19119684849039
  C   1.64206442411720     -1.88798397530530     -0.06800662097480
  C   2.96565430771783     -1.44369258720498     -0.05997647056620
  C   3.24146453918367     -0.10791291103571      0.08808376299925
  C   -0.14560501121787      2.73299591700647      0.00739683590352
  C   2.60729333026580      2.17976467251371      0.41984711628769
  H   4.26077414257528      0.25132286430220      0.12709254312354
  H   1.44719341469870     -2.93719603313265     -0.24588497313923
  N   -0.19076586759370      3.88188611439385     -0.09056531956747
  N   3.05600732321662      3.21942645509417      0.63698904473685
  N   -2.65350596980362      1.79117805262828      0.16483440982110
  H   3.77474611655962     -2.15496402312699     -0.16946442819832
  C   -3.95237290991603      1.71389872665202     -0.23226394572943
  O   -4.71570600247454      2.65441719260974     -0.19657927248450
  O   -4.30543147429024      0.49579980599745     -0.66598573025069
  C   -5.65089663565478      0.37384994192724     -1.09982779532273
  H   -5.76699490420400     -0.66676770454122     -1.38996493989465
  H   -5.84155600924774      1.03359551618689     -1.94582346151451
  H   -6.33833808005536      0.62859078155251     -0.29388494639065
  H   -2.37772219192991      2.74301557077720      0.36591562111049
  N   -0.98523681127381     -2.80204952478356      0.26721100638061
  C   -2.08774573669258     -3.50663200030004     -0.08878596033851
  O   -3.09193248222962     -3.06649573638739     -0.58421423422963
  O   -2.02345547594773     -4.85184550949772      0.15801062261624
  C   -0.82268806779726     -5.45889602093567      0.58090982789617
  H   -0.00375396207733     -5.25640375193761     -0.11503561529972
  H   -1.01337301146701     -6.52923675954704      0.59811944654303
  H   -0.53784400840717     -5.13892103959407      1.58784629063496
  H   -2.85448241066625     -0.91095135635558      0.28430167668781
  H   -0.22733726018191     -3.28838931957387      0.71628744760518
