36
Coordinates from ORCA-job 629optt
  C   -3.23225119897109      0.90523619661041      0.10117602498839
  C   -3.63664038820308      0.32913549483035      1.28476377294663
  C   -2.11896420530625      0.35831948309716     -0.61233837180670
  C   -1.38281783027493     -0.74410690317887     -0.09860464248304
  C   -1.83549636287005     -1.32925028279484      1.13515266445354
  C   -2.94951097477105     -0.76855186453123      1.79192483263890
  C   -0.23024285676607     -1.31142291473944     -0.70760843837550
  C   -1.16122870437392     -2.45053362648567      1.65023580749612
  C   -0.05800815977024     -3.02087171038817      1.01807759063758
  C   0.41537449457108     -2.46109660409197     -0.14804452659938
  C   -1.86376355700652      0.93407163740651     -1.88392829787057
  C   0.39560597960743     -0.76255210588602     -1.85564831956485
  N   -1.79686212520764      1.46621474379171     -2.90641461584058
  N   1.03525812895027     -0.43092895219360     -2.75861611279901
  N   -3.91445828180661      1.98794330379847     -0.50202180963015
  C   -4.56309943184100      3.04211689784712      0.04800109594806
  O   -5.08776702119878      3.92450770397704     -0.59803922904278
  O   -4.57578913647177      3.02365006246639      1.39593927306488
  C   -5.22675679305296      4.13484564468988      1.99055794891986
  H   -5.15617484087557      3.97771264003905      3.06377021378868
  H   -6.26972968807826      4.18361048979806      1.67889941647605
  H   -4.73486994827662      5.06544686444526      1.70920892197318
  H   -3.79923936877800      2.09312865889851     -1.50143942171579
  N   1.54239948935980     -2.94876996420587     -0.83785243016035
  C   2.27586626336978     -4.04856259479699     -0.56570753712537
  O   2.11824902084164     -4.85595947944789      0.32058390347638
  O   3.28653796976998     -4.14763627549459     -1.47285913579946
  C   4.13389049927403     -5.26707420014508     -1.28758195326473
  H   4.88279183569381     -5.20591025071910     -2.07301760492077
  H   3.57191326210463     -6.19730658158632     -1.37153780627385
  H   4.60959115109311     -5.23502690076382     -0.30727715552364
  H   -4.49025778164133      0.72637767505091      1.81082914701924
  H   -3.27662926819374     -1.22044302829004      2.72027078215701
  H   -1.52432750282017     -2.88449291292576      2.57387981630227
  H   0.43097784236065     -3.88643447746691      1.43358679273395
  H   1.84384948955965     -2.41844586661456     -1.64473059622416
