21
Coordinates from ORCA-job 62optt
  C   -4.31406475713731      0.94563918319216      0.11399152847052
  C   -3.94138370580810     -0.30805346685097     -0.29427300401620
  C   -3.32529724745654      1.92616815198754      0.48934580307033
  C   -1.94879058107144      1.51948540638639      0.40269671246812
  C   -1.60922900820205      0.25549851992005      0.00053293908859
  C   -2.58636443078197     -0.70403056257308     -0.34905137760043
  H   -1.18074354187963      2.23452852959555      0.66987785500824
  H   -0.55966409674717     -0.01410318511311     -0.04884248139051
  O   -5.65332449459220      1.27617412038782      0.17436216400814
  C   -3.69582679935441      3.20077009555567      0.91779636376327
  O   -4.90911620143172     -1.22586329345363     -0.67804961842147
  H   -2.33670661373266     -1.70062879804063     -0.68324494540105
  N   -3.99534657057757      4.27825908957952      1.25431837987101
  C   -6.07224893202872      2.08151905560831     -0.91092546961966
  H   -5.50812581502866      3.01710329909503     -0.94669797062421
  H   -7.12764680866785      2.30523018267222     -0.75427276153277
  H   -5.94674135931821      1.53986346918846     -1.85424669173612
  C   -5.61960925813096     -1.76011792750759      0.41700416717110
  H   -4.93145551464104     -2.23894419477735      1.12272378275271
  H   -6.30737121081778     -2.50895801820372      0.02081327183159
  H   -6.18399305259374     -0.98172965664867      0.93613135283880
