36
Coordinates from ORCA-job 630optt
  C   -1.35914526763529      0.22360685809639      0.35092439295936
  C   -1.34136727078666     -1.12921599905840      0.10602929018998
  C   -0.14166259973286      0.94904687059456      0.32918071384957
  C   1.10657723523095      0.33122980661375      0.05411806398632
  C   1.09076040909227     -1.09149744090766     -0.19022616372091
  C   -0.13364113394995     -1.78156324749449     -0.15884289757515
  C   2.37150278428664      0.97742779507035     -0.00905393807818
  C   2.28919405426076     -1.77977458427764     -0.47170077964299
  C   3.50878230986425     -1.11069942067919     -0.48919895141132
  C   3.55532929450394      0.24714179113084     -0.26292473576197
  C   -0.27645009696213      2.33939368019046      0.61359455894205
  H   -0.12657620139862     -2.85047225131163     -0.34718347804734
  C   2.56929374065340      2.37721877211862      0.16811117931329
  H   4.50061189224203      0.77401553646472     -0.27757813108289
  H   2.24952118217948     -2.84111827422614     -0.66801062729951
  N   -0.49001334133329      3.44521386366681      0.85699233039707
  N   2.86117794788637      3.48605987118491      0.28666072578767
  H   -2.28097462470161      0.73873533438177      0.56212916552645
  N   -2.49701946908185     -1.95384913630204      0.10161143870574
  N   4.72933109669485     -1.76875372134509     -0.81196104346373
  C   -3.78243444215278     -1.59685636659438      0.34670594495265
  H   -2.29895007861235     -2.91602593003585     -0.10453309419162
  O   -4.18082403853172     -0.49559238180629      0.61067163331297
  O   -4.69470830061653     -2.61632998834982      0.27851065557382
  C   -4.30641254487335     -3.93473454753864     -0.03200375846274
  H   -3.85589096944682     -3.99974180334728     -1.02682587398312
  H   -5.21655899576458     -4.52946498497024     -0.02326535179229
  H   -3.61729890203787     -4.34011023340897      0.71487066028160
  C   5.21106467952519     -2.96979115055676     -0.41582327213578
  H   5.42460578190471     -1.21678897219071     -1.28757203368754
  O   6.31598390269803     -3.38252891289196     -0.70343867443255
  O   4.33933187102465     -3.66972702925999      0.33176685760396
  C   4.82145896849730     -4.92698171516268      0.77902774266200
  H   5.71539010112997     -4.80204992867053      1.38917444909461
  H   5.06190944106043     -5.57085356147240     -0.06652856488199
  H   4.01662158488290     -5.35704859765423      1.36908156651252
