36
Coordinates from ORCA-job 631optt
  C   -0.97441697275498      0.23668434249911      0.38365466030772
  C   -0.71301829068578     -1.09817818111954      0.20676296368088
  C   0.09106195486369      1.17162843358566      0.30920769138438
  C   1.43002304624165      0.77506362583655      0.03603685163717
  C   1.68323960209680     -0.64034916003090     -0.06460771776926
  C   0.60016392746708     -1.54635705999901     -0.00097187120112
  C   2.53418922593621      1.64899046625774     -0.14900244307997
  C   3.01623429866745     -1.08856157763685     -0.20387838050259
  C   4.08458819799525     -0.20514892582649     -0.34116377619546
  C   3.83575773259192      1.14671958903097     -0.33737622683888
  C   -0.27697881542301      2.52007767228332      0.57654522770613
  H   0.76020786704485     -2.59577707924731     -0.21856055989016
  C   2.42249997670082      3.07041351778646     -0.21558138045657
  H   4.64447590892455      1.85073238557456     -0.47684873960613
  N   -0.66661420337029      3.57427304545386      0.83341285882066
  N   2.45577128233643      4.21717295492013     -0.31653158132075
  H   -1.97457253749025      0.58664297951473      0.57717310737158
  N   -1.70625706001854     -2.11167829954658      0.19994286845444
  N   3.22123798223364     -2.48794056968977     -0.10022773112374
  C   -3.03487312064515     -1.98778468026897      0.44622777890377
  H   -1.34525454715149     -3.02253802599445     -0.01767080182475
  O   -3.61468581816106     -0.98119097171657      0.74729120124106
  O   -3.75884644730270     -3.14483609888713      0.33505945473822
  C   -3.15783090070391     -4.35725564910802     -0.05794287130611
  H   -2.70330734955672     -4.27980341266988     -1.04973974031819
  H   -3.95712889385874     -5.09317790602798     -0.09713070110986
  H   -2.41125173390723     -4.69237525343515      0.66867907978061
  C   4.19212137854892     -3.21203935480290     -0.70886136926883
  O   5.02004756849317     -2.79324406747362     -1.47347153375748
  O   4.20853888588792     -4.54616056694087     -0.40115091975950
  C   3.19722643250972     -5.12396680082938      0.39294116061339
  H   3.21376737350622     -4.73823495778703      1.41646036376882
  H   3.40425209785315     -6.19112031878614      0.41923865727449
  H   2.20617020401569     -4.96808978378698     -0.04349429117041
  H   2.59641616087754     -2.94882739821548      0.54117041174614
  H   5.08461558623706     -0.58944291291602     -0.47232170092972
