20
Coordinates from ORCA-job 633optt
  C   -1.00858060841918      0.51873456595218      0.01692680804238
  C   -1.02749720752433     -0.85711503596711     -0.00600813065533
  C   0.20957340174109      1.21238787348247      0.02571880984198
  C   1.43330301274823      0.53157747771007      0.01148131608968
  C   1.44739825118222     -0.90810585424604     -0.01271756451191
  C   0.18153184545007     -1.57918622116928     -0.02103618759684
  C   2.69916881761697      1.20265887092791      0.01978310354216
  C   2.67112794980627     -1.58891595179251     -0.02695148086193
  C   3.88928205187791     -0.89526248392562     -0.01815694985441
  C   3.90819789512042      0.48058727566056      0.00477761426498
  C   2.73794003891774      2.61979699136984      0.04391065584022
  H   4.84413186681416      1.02422592260403      0.01187060733054
  H   2.66396304150248     -2.67167009359923     -0.04509244936645
  N   2.76564299324494      3.77488348785232      0.06342141141243
  H   -1.94034659165720      1.07020231390199      0.02843594170158
  H   -1.96343151164857     -1.40075311756241     -0.01310007420049
  H   4.82104839894896     -1.44672961564485     -0.02966379722006
  H   0.21673850557571      2.29514207858867      0.04385840006954
  C   0.14276046003634     -2.99632385956603     -0.04519071008570
  N   0.11505738866575     -4.15140462457698     -0.06504732378239
