23
Coordinates from ORCA-job 634optt
  C   -1.02289350825476      0.38514787989173      0.01712867334097
  C   -1.01349631253787     -0.98816376214890     -0.00425701374703
  C   0.16305275523630      1.14131299396278      0.02497087295718
  C   1.41523147526699      0.48888935677635      0.01239042086839
  C   1.45292511439967     -0.95778502747335     -0.01292794394862
  C   0.21084225929375     -1.67062226805061     -0.01984605376359
  C   2.69175590227368      1.15718960135161      0.02168998748551
  C   2.67698210573755     -1.63881308996478     -0.03092809411949
  C   3.89399549552588     -0.94878776624177     -0.02419797615876
  C   3.90184706423683      0.42248012789989      0.00201796838476
  C   2.87460027145440      2.56587361808862      0.05378035367295
  H   4.83442925655533      0.97174650480205      0.00917616138205
  H   2.66687522447327     -2.72108239447123     -0.05068084098356
  N   3.13975207821411      3.69117151600763      0.07922103378135
  H   -1.97073795350827      0.91046275777173      0.02803349760694
  H   -1.93741431510019     -1.55183392635004     -0.01009305766096
  H   4.82801650293940     -1.49639443852986     -0.03923552580821
  C   0.03255877514913      2.63937060712000      0.04514407504623
  C   0.21049928245252     -3.08872022390843     -0.04446436533118
  N   0.20771483398108     -4.24384621309811     -0.06457260935257
  H   -1.02261901749473      2.91426315880231      0.04611474384302
  H   0.50371995272531      3.10757701852635     -0.82134825042756
  H   0.49930275698055      3.08485396923600      0.92582394293218
