26
Coordinates from ORCA-job 639optt
  C   -1.02443922097182      0.43009670816450      0.00848817807718
  C   -1.00047589937431     -0.93004791325051     -0.14976265834791
  C   0.15874276393632      1.18569470298740      0.06172909033541
  C   1.40989651720924      0.53910046941914     -0.03586484423898
  C   1.47354315143083     -0.91330626865246     -0.06882030116854
  C   0.22635353608535     -1.61936114192731     -0.20488404303025
  C   2.66147583362297      1.24937087203687     -0.07526271051401
  C   2.71879809236255     -1.56546839291543      0.06072807917510
  C   3.90238921611321     -0.80963493067102      0.10191858667278
  C   3.88478230564857      0.55643272793918      0.00734633823690
  C   2.79103439157534      2.64765654870665     -0.29090017689571
  H   4.80631337941936      1.12398819829703     -0.00783502344367
  C   2.84177326717195     -3.05695653365528      0.21416050380623
  N   3.00173405126060      3.76622593280528     -0.49319580976219
  H   -1.97581358258029      0.94384222204673      0.08303642588114
  H   -1.91947460112417     -1.49506197506977     -0.23784060269555
  H   4.84950001034211     -1.32747161140273      0.19903618190028
  C   0.02606209044422      2.66878311233648      0.27607602138280
  C   0.11038481565557     -3.00501601397649     -0.49663616558485
  N   -0.08768173663680     -4.11196839740755     -0.76492379319189
  H   -1.00551457866387      2.90491116229949      0.54020947205940
  H   0.29136062490136      3.25643667255252     -0.60484164834436
  H   0.67162538037270      3.01918385398539      1.08423117664768
  H   2.15710440589634     -3.44182878576774      0.97302465648468
  H   3.85913585473068     -3.30625302681499      0.51827200223860
  H   2.62056993117189     -3.60434819206534     -0.70403893568023
