24
Coordinates from ORCA-job 645optt
  C   -1.07832055121618      0.38538581038049      0.04177042702711
  C   -1.00892552256783     -0.99728244207921     -0.05632074406152
  C   0.12996739822667      1.11604011837870      0.10794383603898
  C   1.37380737188809      0.48556873144941      0.07814103879248
  C   1.45659231809233     -0.94881594159536     -0.02335019116312
  C   0.21370729793855     -1.66833331289167     -0.08945400378322
  C   2.61525041713838      1.20188848274306      0.14408095798875
  C   2.70017572412589     -1.57717417035395     -0.05426703411483
  C   3.89076800384383     -0.84158317011570      0.01251051022140
  C   3.84711938934124      0.53271289646143      0.11079553294138
  C   2.60135823370502      2.61826456288140      0.24720912426131
  H   4.75906237329015      1.11365323396662      0.16365847060567
  H   2.73504368306529     -2.65716661864977     -0.13163125960355
  N   2.58728186585579      3.76951139432319      0.33159286711101
  C   -2.38814933680903      1.01871165387755      0.07153600509940
  H   -1.92446706427342     -1.57554843596781     -0.10900492153336
  H   4.84427892729635     -1.35277388452938     -0.01339818067857
  H   0.10317836433781      2.19546738908175      0.18421916973961
  C   0.22886649281450     -3.08439249903236     -0.19256431296710
  N   0.25156662470080     -4.23561927542138     -0.27812169653126
  C   -2.65671053300182      2.32556133748823      0.16650674065493
  H   -3.22582079267966      0.32794441171234      0.00879475080910
  H   -1.87605023826251      3.07225181514973      0.23392418681657
  H   -3.67872044685026      2.68032791274267      0.17952872632879
