24
Coordinates from ORCA-job 646optt
  C   -0.89206644344694      0.70014602279165      0.19396033602541
  C   -0.95952797790747     -0.66247359216921      0.29467035031223
  C   0.33280994650890      1.38262662979978     -0.01007554519403
  C   1.54598935837361      0.63271968924026     -0.02479348570494
  C   1.48202759118153     -0.80932746661127      0.00492396873094
  C   0.20737692066934     -1.43866622925295      0.17811238525103
  C   2.85990657532019      1.19944493500252     -0.04782189362638
  C   2.65101507587159     -1.57040344750537     -0.13425205996016
  C   3.90084026920588     -0.97274786302069     -0.26045622322880
  C   4.00785195133034      0.39857311881162     -0.19578130992001
  C   3.13984047304590      2.58089037019070      0.17484592031701
  H   4.97452290155933      0.88360699600471     -0.22949655778371
  H   2.56361250104683     -2.64977873975803     -0.13921263461163
  N   3.47479011737240      3.66696142817477      0.37252943652136
  H   -1.80745654698354      1.27619209809942      0.20933526512629
  H   -1.91210840692702     -1.15955836553247      0.42644100290473
  H   4.78733211402252     -1.58298260096514     -0.37683890068518
  C   0.30090786486863      2.81189069922837     -0.27411866683034
  C   0.11670599044900     -2.85013728239526      0.23181609912853
  N   0.04615125421733     -4.00336311937777      0.27226631068094
  C   -0.67211962311801      3.66971899494614      0.06196603191792
  H   1.13520031590125      3.21639136533389     -0.83405224454373
  H   -1.52634452208753      3.37465365025515      0.65882827886091
  H   -0.61554770047410      4.70810270870915     -0.23555586368838
