38
Coordinates from ORCA-job 652optt
  C   -0.88603034879008      0.50588712562898     -0.84217433774660
  C   -0.79638322659001     -0.77872635407343     -1.30535982769415
  C   0.20816499617844      1.16023053046475     -0.23989624561464
  C   1.43082394488133      0.46362694671933     -0.11171544704910
  C   1.45611402888515     -0.98386644103307     -0.30808054849360
  C   0.36181316244828     -1.53768692536643     -1.06339275266618
  C   2.69058093739267      1.07715023659958      0.22217869919302
  C   2.51042025056440     -1.74224020595492      0.24860320829575
  C   3.65870627352760     -1.06875647754068      0.71379162096169
  C   3.77937179594612      0.29244020969854      0.64067930200838
  C   2.99146508951330      2.44032011470199     -0.01103513574269
  H   4.70576344900585      0.78486580348078      0.90779638053073
  C   2.52483069940131     -3.24590946854045      0.51352492750870
  N   3.33098493541425      3.52944845971983     -0.19925665923130
  H   -1.81475580646558      1.05227641473470     -0.96367289269268
  H   -1.61146868973945     -1.23066090451788     -1.85618138238124
  H   4.47746071324313     -1.65533596777221      1.11554980053887
  C   -0.12227289683454      2.55039729415898      0.29808755923716
  C   0.42743400629265     -2.76694426753690     -1.76186069531730
  N   0.40745084557625     -3.73868065380780     -2.38806775453233
  C   0.02157477000336      3.67568581108905     -0.73499552780782
  H   1.05913914243736      3.84019508271262     -1.01517076175704
  H   -0.37235863977467      4.61137572187474     -0.32736284470582
  H   -0.54625915589664      3.43005777396589     -1.63462354896625
  C   0.49232754975168      2.91663122754019      1.65456917213447
  H   -1.19695204946674      2.48081645687822      0.49596668289836
  H   -0.11745114440805      3.69682618099627      2.11769076542059
  H   1.50484979321787      3.30240449605271      1.57936597175928
  H   0.49947905958114      2.05112810429988      2.31927570251537
  C   1.19814943621045     -3.86690464428598      0.96768121542699
  H   0.66623910304477     -3.18942255672554      1.63782653379416
  H   1.41066480019461     -4.78948662863318      1.51424879483053
  H   0.53888339002157     -4.12569728984870      0.14419498986104
  C   3.21535496563063     -4.07222138695458     -0.57963938238673
  H   3.17791831493180     -3.32828109330717      1.38855863867631
  H   3.31902829522856     -5.11158375820263     -0.25430017807653
  H   4.21360889567010     -3.67442689767381     -0.77278735571219
  H   2.65380931377096     -4.06450206954161     -1.51061668701724
