38
Coordinates from ORCA-job 655optt
  C   -0.79244260803199      0.20587010697932     -0.23374096789276
  C   -0.63698025043288     -1.00021914165276     -0.88300952751375
  C   0.33850102647431      0.83670600259735      0.31070178683997
  C   1.61952152450013      0.27902529338647      0.21307931829028
  C   1.80041659549368     -0.97923241619767     -0.46090590313569
  C   0.63325786311800     -1.59936251291699     -1.00414484212372
  C   2.78668770127593      0.89917897786822      0.75627651529161
  C   3.08142470900723     -1.53695454364592     -0.55846717992412
  C   4.21236947381897     -0.90610590569272     -0.01404140260314
  C   4.05692236525533      0.30002375256730      0.63515551772725
  C   2.66655009929272      2.14037394684836      1.43099612024064
  H   4.91587207937139      0.80389419140499      1.06297609099215
  H   3.18795239545386     -2.48585998319355     -1.07251215547860
  N   2.56030282337752      3.15159248169107      1.97999828593654
  C   -2.15809324293099      0.84425062813966     -0.10685983081376
  H   -1.49592265539193     -1.50406929715674     -1.31086926705625
  C   5.57801705437882     -1.54450119344010     -0.14088175060890
  H   0.23196777712982      1.78559667359660      0.82477382676862
  C   0.75340899317186     -2.84051679015894     -1.67893780357939
  N   0.85966209261351     -3.85172353772843     -2.22796000873810
  C   -2.21365665611201      2.20313803941495     -0.80928701061407
  H   -1.51942277849554      2.90367741541341     -0.34112870556404
  H   -3.21761150112979      2.63137986793350     -0.75101735564534
  H   -1.93443550338939      2.10797387211099     -1.85930053126782
  C   -2.58174637469643      0.98624867284144      1.35725637976223
  H   -2.87187216080983      0.17843212866036     -0.60190092111777
  H   -1.89845717902414      1.65029881887495      1.89022033535032
  H   -2.56696832403765      0.01867611739108      1.86042273161267
  H   -3.58851640158183      1.40514623391456      1.43250871139444
  C   5.63357600349546     -2.90333557681193      0.56164898187305
  H   5.35440734164340     -2.80808045839488      1.61166830461671
  H   6.63751430822982     -3.33161440180910      0.50336470338406
  H   4.93929531011135     -3.60388671261664      0.09357681541482
  C   6.00166083679387     -1.68661005034070     -1.60498956291085
  H   6.29180076195141     -0.87864615757548      0.35410232966534
  H   5.31841201907210     -2.35075575698493     -2.13788640236675
  H   7.00845946559498     -2.10544311909308     -1.68021959245074
  H   5.98680501543878     -0.71908566622402     -2.10824603375511
