20
Coordinates from ORCA-job 659optt
  C   -1.00317924883671      0.53545839407579      0.01730012664226
  C   -0.98849346106880     -0.83120397488041     -0.00585010832908
  C   0.22516841729601      1.22217926535356      0.02640636596786
  C   1.44313359469707      0.54005734577936      0.01207693386388
  C   1.45903637062977     -0.90068008599716     -0.01215181845885
  C   0.19215866026690     -1.58149644312284     -0.02080269053834
  C   2.71395863450632      1.20850977354238      0.02001016377595
  C   2.67581383882292     -1.58285723963283     -0.02658060196584
  C   3.89753281442444     -0.89238370907527     -0.01825293793927
  C   3.91750937641011      0.48377041006598      0.00458205064134
  C   2.75551172684660      2.62557407792379      0.04388264402943
  H   4.85471517329678      1.02533844337767      0.01119972847844
  H   2.66499161079724     -2.66553385017301     -0.04473404140574
  N   2.78053551079306      3.78049608124084      0.06319325981131
  H   -1.94949256363584      1.05763495913049      0.02797979629311
  F   -2.15780520507548     -1.50476749354344     -0.01584870446322
  H   4.82745177474679     -1.44619722612031     -0.03012135917111
  H   0.23124809608040      2.30444525794930      0.04465717453820
  C   0.13653938796123     -2.99452905557617     -0.04489011983054
  N   0.13065549104117     -4.14908493031775     -0.06486586193975
