20
Coordinates from ORCA-job 662optt
  C   -1.05186727188256      0.47133602382332      0.01581692807711
  C   -1.04748720674457     -0.90459351438536     -0.00600578337015
  C   0.17000910313386      1.14611990403148      0.02327588262256
  C   1.41073981965172      0.52404916332791      0.01091575516420
  C   1.42711997003139     -0.91978969629162     -0.01310455043171
  C   0.16357054739953     -1.60593799189230     -0.02085844688223
  C   2.66955216616627      1.22562957831016      0.02030630763355
  C   2.64497127759729     -1.59643257756075     -0.02794875243106
  C   3.86966999278347     -0.90150751776645     -0.01923846520743
  C   3.84801417589752      0.46338704845431      0.00443652845107
  C   2.80216400287687      2.63645279630476      0.04569781314238
  F   5.01723349693352      1.13313303718860      0.01411532874829
  H   2.64192025672617     -2.67821938910662     -0.04640582855137
  N   2.97626060478397      3.77714030622096      0.06619115691940
  H   -1.96741703895873      1.04524274561899      0.02758049375514
  H   -1.97768407303734     -1.45715993760615     -0.01225518150917
  H   4.81956604967100     -1.41682396187151     -0.03062383676240
  F   0.12026163199103      2.49561142639691      0.04412690741351
  C   0.14102351845971     -3.02423548897984     -0.04462399920920
  N   0.12939897651982     -4.17865195421679     -0.06420825757249
