20
Coordinates from ORCA-job 664optt
  C   -1.03140405494862      0.46237656036989      0.01619941345788
  C   -1.01564038956308     -0.90975195277607     -0.00620073984569
  C   0.18457582478056      1.14848111047543      0.02376109253593
  C   1.43111969433655      0.53513330400914      0.01127844185188
  C   1.44957841706021     -0.91165992060176     -0.01251178177801
  C   0.19904051008464     -1.62048427318854     -0.02158099953507
  C   2.68165751205909      1.24395843454124      0.02029766164117
  C   2.69612211623425     -1.52500924023412     -0.02492409258319
  C   3.91210229714510     -0.83890526881418     -0.01733258051412
  C   3.89633851528633      0.53322402176270      0.00500928552770
  C   2.78378664736951      2.66101379214354      0.04524397469539
  H   4.82251932849675      1.09223287763866      0.01169130035129
  F   2.75483838709988     -2.87547846522089     -0.04606028046695
  N   2.97321137302153      3.79968684488110      0.06519359247443
  H   -1.95313113906032      1.02672629090213      0.02830837889223
  H   -1.94182143227828     -1.46876025379053     -0.01289047624905
  H   4.83383000534746     -1.40325516099375     -0.02938075496966
  F   0.12586007632608      2.49894913028429      0.04498390850734
  C   0.09691272482321     -3.03753693238913     -0.04669019700751
  N   -0.09250641362088     -4.17620089899914     -0.06719514698599
