20
Coordinates from ORCA-job 667optt
  C   -1.06711964595606      0.42344378679976      0.01404665841553
  C   -1.04220191487611     -0.94657127040566     -0.00639258204283
  C   0.13314597962426      1.15190713899674      0.02224933832160
  C   1.40136968240369      0.54553809497244      0.01111145406860
  C   1.43010399070343     -0.90431138518826     -0.01267194956242
  C   0.18788938470464     -1.62252436867045     -0.01989409963283
  C   2.67065958747060      1.21336466407463      0.02038585250384
  C   2.65252613474877     -1.58209645907467     -0.02874331436796
  C   3.86936587336591     -0.89570806861598     -0.02170533477048
  C   3.87523428141025      0.47651819207199      0.00270097647502
  C   2.87074643083988      2.62461975685885      0.04973629931377
  H   4.80690234399379      1.02672981182588      0.00986573916726
  H   2.64015756638911     -2.66436495581679     -0.04710629341876
  N   3.19242577627044      3.73263671185675      0.07311824137089
  H   -2.00329760405349      0.96325758598339      0.02417688414659
  H   -1.96295569502056     -1.51465517969716     -0.01265054448288
  H   4.80277586790885     -1.44352215304480     -0.03515009935179
  Cl  -0.04799828446559      2.88400919650299      0.04675118027185
  C   0.19537882809465     -3.03912458348532     -0.04218071415846
  N   0.20189141644351     -4.19438651594430     -0.06044769226651
