20
Coordinates from ORCA-job 673optt
  C   -1.09272595466817      0.43439909035402      0.01365042375650
  C   -1.06287977204708     -0.93593161623171     -0.00637973795887
  C   0.10398080105198      1.16501528783098      0.02174471671864
  C   1.37382282772727      0.56249327797435      0.01114999295071
  C   1.40567260606666     -0.88678666744897     -0.01225379760053
  C   0.16904527425847     -1.60609304465724     -0.01950114088262
  C   2.64002848105801      1.23599101282336      0.02076192820777
  C   2.62814643548492     -1.56943848990640     -0.02798163535649
  C   3.82715927232002     -0.85984371373338     -0.02055626741211
  C   3.85160881881520      0.50671656421272      0.00334842421176
  C   2.83582653644191      2.64655805626260      0.05083112754933
  H   4.78966716693721      1.04261435469653      0.01031397871158
  H   2.63743903483803     -2.65030844727090     -0.04614712069842
  N   3.15045162060963      3.75644538451801      0.07503834572374
  H   -2.03038355566645      0.97137491150251      0.02346102936704
  Cl  5.33101824624118     -1.74394691464697     -0.04169507058827
  Cl  -0.08043924754499      2.89496502580341      0.04540977657524
  C   0.17981191527359     -3.02465723307588     -0.04154551926840
  N   0.18609292912875     -4.17875529711109     -0.05946848998689
  H   -1.98082343632620     -1.50817154189596     -0.01261096401972
