20
Coordinates from ORCA-job 676optt
  C   -0.99664465460269      0.54622253942411      0.01739433443139
  C   -1.01602120606124     -0.82593922448600     -0.00549503290544
  C   0.23035940877385      1.22283055975224      0.02584874867832
  C   1.44463062812343      0.53133257158606      0.01142547834306
  C   1.44161933758582     -0.90606658447128     -0.01267192454662
  C   0.17213453146956     -1.57792953374339     -0.02097843082349
  C   2.71411555444971      1.20319493290095      0.01973570075238
  C   2.65589072903065     -1.59756397179665     -0.02709324820422
  C   3.88289508395662     -0.92095631906768     -0.01863569701394
  C   3.90227151243170      0.45120573135173      0.00425482897006
  C   2.73951679650448      2.61898611119778      0.04386139183095
  Cl  5.43165932844496      1.27916315023909      0.01480282938243
  H   2.64484594165121     -2.67944114163714     -0.04527895466439
  N   2.70584960023585      3.77249635191616      0.06365112785264
  H   -1.92878998230306      1.09306997865943      0.02890234245103
  H   4.81504021090300     -1.46780424533996     -0.03014233913847
  H   0.24140336101485      2.30470760742430      0.04403443080992
  C   0.14673316029782     -2.99372090158207     -0.04510196163400
  N   0.18040009004674     -4.14723115825168     -0.06489442393947
  Cl  -2.54540943195331     -1.65389645407603     -0.01603920063217
