21
Coordinates from ORCA-job 678optt
  C   -0.97738763098655      0.49908449395850      0.01698526609951
  C   -1.00833127734392     -0.87564974100633     -0.00634460172202
  C   0.22628149579863      1.20326850588078      0.02583692121031
  C   1.45145113240903      0.51840160061683      0.01123870564925
  C   1.46926561439333     -0.92150212416473     -0.01291246443254
  C   0.21215901053558     -1.59671512539740     -0.02158978321695
  C   2.71009187011045      1.18969430722463      0.01925849545237
  C   2.70058786470769     -1.59619923311498     -0.02674601685270
  C   3.91196887662654     -0.90032795028419     -0.01796387220855
  C   3.92423464727930      0.47749861082277      0.00461409249650
  C   2.74378069181273      2.60961514181768      0.04302575707097
  H   4.85602857409930      1.02764136750950      0.01167501904588
  H   2.69748724638240     -2.67908985479152     -0.04467942072612
  N   2.77249845893802      3.76360442970521      0.06235742257846
  O   -2.13265082918797      1.24720501264420      0.03266611784074
  H   4.84602194941867     -1.44786158443729     -0.02916527436279
  H   0.20337829873518      2.28474712371555      0.04416629504404
  C   0.17583904404803     -3.01057820104607     -0.04619125269025
  N   0.14626489296733     -4.16665114773888     -0.06630678893713
  H   -1.94988488220256     -1.41228969092871     -0.01358032168587
  H   -2.88058504854125      0.64357405901446      0.02461570434694
