22
Coordinates from ORCA-job 680optt
  C   -1.00311340586962      0.45579259077263      0.01644277266733
  C   -0.99989358378615     -0.91471385103683     -0.00700580202655
  C   0.20074489445322      1.18221464057186      0.02570751219283
  C   1.44162216128981      0.52298823611724      0.01158939751288
  C   1.46222422822880     -0.91956244282766     -0.01269727557837
  C   0.22150421359767     -1.61115106759970     -0.02176303362842
  C   2.72103536064621      1.19547146994439      0.01942765896781
  C   2.69185903517461     -1.60752495030795     -0.02687748107936
  C   3.90852814807427     -0.91779037874743     -0.01823788944920
  C   3.93047871953702      0.45377909644417      0.00424090786791
  C   2.84651880389632      2.59885867099460      0.04252527568767
  H   4.86687496675908      0.99608589184821      0.01109724124506
  H   2.67750493321261     -2.68926561947038     -0.04486995528340
  N   2.95613974565995      3.75437133337887      0.06173752251082
  O   -2.16352736192473      1.18959316425447      0.03186096631327
  H   4.83980918229051     -1.47046332200636     -0.02959771408560
  O   0.03825823649842      2.53317678732427      0.04863273953525
  C   0.19686272566033     -3.02929462349781     -0.04662704183486
  N   0.16844943705679     -4.18349125307352     -0.06687134460691
  H   -1.93421076427921     -1.46413181123361     -0.01447609150518
  H   0.88220867765559      3.00070919495322      0.05484857235369
  H   -2.90034835383154      0.57272824319730      0.02326306222329
