22
Coordinates from ORCA-job 682optt
  C   -1.00917249714433      0.45173801272092      0.01751733889217
  C   -0.98851448433989     -0.91624945704307     -0.00658560911855
  C   0.19337665737575      1.17824826086048      0.02644333622076
  C   1.43830112743929      0.54055060791849      0.01186325316515
  C   1.46817591581550     -0.90928049998437     -0.01233875816585
  C   0.22378271169210     -1.62522418866612     -0.02234221213914
  C   2.71137526729660      1.24122645612075      0.01934745585293
  C   2.71198529056317     -1.54980438815300     -0.02431907458227
  C   3.92761270491576     -0.84415441538548     -0.01657454231823
  C   3.92428814017600      0.52331129929992      0.00452878962756
  C   2.82092381240471      2.64514717124562      0.04162540404109
  H   4.85519448240179      1.07517638256828      0.01052827309662
  O   2.72363458129186     -2.92296838927271     -0.04438662135839
  N   2.91754294319513      3.80187938620084      0.06032823741081
  H   -1.93704668065921      1.00667735190253      0.03003286996248
  H   4.86278791647436     -1.39355826689939     -0.02753233492954
  O   0.01789248312486      2.53353064283797      0.05017563543907
  C   0.09167211975669     -3.04232897190763     -0.04971027309523
  N   -0.15733829417027     -4.16945727571072     -0.07152811289300
  H   -1.91398108000538     -1.47744079594937     -0.01437476885500
  H   0.85176700145532      3.01786905046381      0.05603038080424
  H   3.63580988094016     -3.22236797316775     -0.05378866705764
