22
Coordinates from ORCA-job 683optt
  C   -1.04045562278242      0.47400223781235      0.01676004286485
  C   -1.03120130957034     -0.89959401522319     -0.00653681278983
  C   0.16054158941577      1.19242500897036      0.02581282108610
  C   1.41279105643205      0.54800187884600      0.01187348934083
  C   1.42768498596684     -0.89103633800047     -0.01236461788958
  C   0.18504854203758     -1.58843285916467     -0.02134050606647
  C   2.69158707580497      1.22163883167157      0.01989258468755
  C   2.65200610583701     -1.58346283672557     -0.02655706540697
  C   3.86494487617790     -0.88920820639808     -0.01766482590690
  C   3.90716642715540      0.47852646074423      0.00473895936892
  C   2.80833676915850      2.62185169796765      0.04318437233564
  H   4.85794517075200      0.99227783837596      0.01120698418362
  H   2.64726104010904     -2.66736606146757     -0.04463133421565
  N   2.89990654272466      3.78070014010718      0.06254409758632
  H   -1.96441818157979      1.03547317054504      0.02878701363445
  O   5.05569170231850     -1.57577482236734     -0.03145895775755
  O   0.00180181002029      2.54447708821751      0.04889043617532
  C   0.17933326995092     -3.00954422610966     -0.04625508281581
  N   0.18335495864634     -4.16322371366578     -0.06655418092464
  H   -1.95796023480906     -1.45816542767522     -0.01383512526365
  H   0.84376006174883      3.01755816680008      0.05501954836652
  H   4.85514336448500     -2.51584401326037     -0.04707184059310
