22
Coordinates from ORCA-job 685optt
  C   -0.99725298847226      0.51159324463288      0.01749638418771
  C   -1.02539627197741     -0.86567131652109     -0.00615047714790
  C   0.20185100525741      1.21515916239621      0.02602797375021
  C   1.43378906244099      0.53293903336134      0.01118479111914
  C   1.44918563740795     -0.90627347262985     -0.01286980418413
  C   0.19836428553219     -1.58002181728676     -0.02170972585001
  C   2.68841719994787      1.20008165794066      0.01899515383249
  C   2.68249321639124     -1.58363318114287     -0.02628222114662
  C   3.88531851004102     -0.88256393945898     -0.01727361133651
  C   3.91217314775045      0.49289161765090      0.00473552015753
  C   2.71891922678005      2.61923585081884      0.04259898604248
  H   4.85540062439123      1.01994862697861      0.01142897937716
  H   2.68898274352872     -2.66867160454839     -0.04400060978181
  N   2.74095830705190      3.77355710005053      0.06181048296817
  O   -2.15618311137054      1.25511922435053      0.03370458700814
  O   5.08827004276692     -1.55144674144845     -0.03019529618030
  H   0.17776539879659      2.29668107821041      0.04452166136523
  C   0.17512469825820     -2.99584093389493     -0.04696023396373
  N   0.16956012591119     -4.15161143068973     -0.06764018024166
  H   -1.96444007539158     -1.40614287269882     -0.01338517010500
  H   -2.90160059480593      0.64855747074562      0.02603897334752
  H   4.90357980976374     -2.49470675681664     -0.04560616321811
