22
Coordinates from ORCA-job 686optt
  C   -0.99919704412684      0.51988203493787      0.01682153382895
  C   -1.01316193969945     -0.85591683838004     -0.00590538065630
  C   0.23056600379401      1.20316427738415      0.02506737871344
  C   1.44832385641795      0.53077602328910      0.01113125152675
  C   1.46422784726980     -0.90843833575118     -0.01299024637510
  C   0.19132536159247     -1.58460038256676     -0.02127694749474
  C   2.71903882627317      1.21282456046334      0.01984449975864
  C   2.67733140339196     -1.58413741065584     -0.02714457675443
  C   3.90426553442493     -0.89500942498548     -0.01845843856556
  C   3.91319281219285      0.48466902703292      0.00481874722125
  C   2.75867978090563      2.62779878171682      0.04414340189025
  O   5.08012706868291      1.20034457360487      0.01443796654034
  H   2.67626587057540     -2.66731290269442     -0.04535402869060
  N   2.74331368482351      3.78221581303228      0.06414464062686
  H   -1.93924068811083      1.05366201234182      0.02820215811710
  H   4.84180538305160     -1.43950480628094     -0.03005306291720
  H   0.23487199099477      2.28592784079816      0.04308670687283
  C   0.10868582238883     -2.99153347007303     -0.04509310055444
  N   -0.02890317348757     -4.14149836735617     -0.06438812229991
  O   -2.21799195131488     -1.49873658453163     -0.01338451026663
  H   -2.06788437399992     -2.45227010739873     -0.03031125901932
  H   5.81197792395963      0.57735368607287      0.00310138849784
