28
Coordinates from ORCA-job 690optt
  C   -1.05419225595376      0.54639654490478      0.26870241037530
  C   -1.01238009524500     -0.82165104503906      0.34586390857207
  C   0.11921046821556      1.29102234805252      0.04609547794570
  C   1.36985997675768      0.67152256744239     -0.09904065206020
  C   1.43598974288651     -0.76795499617489     -0.02271943830492
  C   0.22139512836854     -1.48747189288417      0.20779356445099
  C   2.59449519012080      1.38490980357632     -0.31368950864192
  C   2.67111576570953     -1.41373008331712     -0.16949961202951
  C   3.84815811744579     -0.68761545114276     -0.38195672632823
  C   3.81419621271524      0.68447529986392     -0.45051114307732
  C   2.68396839779437      2.80244735463469     -0.38397377557173
  H   4.71979578715362      1.25488838412189     -0.61054791486107
  H   2.70088783092576     -2.49427195939985     -0.11145098497984
  N   2.87330578917631      3.94107781212911     -0.43589817413403
  O   -2.25309914690823      1.20900762008701      0.43364598154080
  H   4.79046287067975     -1.20961022185761     -0.49073974729846
  O   0.01672210091241      2.65820415408553     -0.04308079510032
  C   0.25246113143069     -2.90153020677090      0.29430340665573
  N   0.28172760029172     -4.05461566761181      0.36243253355826
  H   -1.92466451913246     -1.37590290038571      0.51981705007846
  C   0.08987506261078      3.31196448734917      1.21309898996380
  H   0.14395307660555      4.38036504414915      1.01089838893737
  H   0.99219147922984      3.01076467090065      1.75158349717145
  H   -0.79446963636892      3.07795452198392      1.81284016657203
  C   -2.77776970855049      1.72122457621855     -0.77780979959815
  H   -2.08020084033539      2.42286476887294     -1.23921091452858
  H   -3.70589062280720      2.23524452877814     -0.52937858297681
  H   -2.98928490372903      0.90395993743311     -1.47500760633089
