28
Coordinates from ORCA-job 692optt
  C   -0.91342815365524      0.87916648139518      0.29140551232364
  C   -1.15082154643777     -0.47217262309846      0.34196172859914
  C   0.39838356263422      1.34450627410936      0.10597069374225
  C   1.48882678524108      0.47139014951102     -0.02583449911083
  C   1.24487574163650     -0.94785341641511      0.02581424695451
  C   -0.10850143349114     -1.40713596049883      0.21163561838041
  C   2.84233714700108      0.93068868340915     -0.21066648320760
  C   2.33514183933067     -1.82099061030322     -0.10732493059847
  C   3.64694955587825     -1.35564567759587     -0.29276633443101
  C   3.88451669541546     -0.00428295711061     -0.34201607684391
  C   3.24893836391373      2.29192372515796     -0.27029080528110
  H   4.89240356649848      0.36371847851424     -0.48277216554782
  O   2.03210126082839     -3.15371319328667     -0.03943687467265
  N   3.71579805536985      3.34744948135063     -0.33316055414142
  H   -1.73664738476410      1.57041661674721      0.39331816144081
  H   4.47004927032638     -2.04690347194617     -0.39558595652067
  O   0.70117476244452      2.67720036733717      0.03636329878730
  C   -0.51479853652480     -2.76833143243217      0.27402970503852
  N   -0.98122735672930     -3.82376542194165      0.34152760010857
  H   -2.15863604155980     -0.84017609691855      0.48322814077864
  C   -0.32581038589650      3.60883123190174      0.20709692171376
  H   -1.09006108189308      3.51683713412368     -0.57257609391400
  H   0.14131274675615      4.58944423317254      0.13823804466086
  H   -0.80722640513161      3.50450305582785      1.18573461506440
  C   3.05928800722874     -4.08531145755223     -0.20912131611302
  H   3.82274247287053     -3.99324045600115      0.57131855079434
  H   3.54169766624636     -3.98103518326054     -1.18727900160846
  H   2.59213082646287     -5.06593795419650     -0.14068174639615
