28
Coordinates from ORCA-job 693optt
  C   -0.38393747550317      0.44557960023410      0.23982294945550
  C   -0.44132451560784     -0.93130475815478      0.27730099190785
  C   0.85367169501501      1.08690424043779      0.11613729596698
  C   2.06822776733921      0.37438664409822      0.02492208921670
  C   2.01361402948238     -1.05905619259444      0.06556200599775
  C   0.73525665143367     -1.68649568594871      0.19287372381203
  C   3.35443346211871      0.99094868407020     -0.10699977782621
  C   3.19439299166309     -1.81792653489942     -0.01991329799243
  C   4.43389492759324     -1.18032746022403     -0.14573326376268
  C   4.52449431556248      0.18921533270033     -0.18908891846102
  C   3.58002559415860      2.39107107603958     -0.17044530438589
  H   5.49364647676002      0.65717463992054     -0.28784118018775
  H   3.11356320145066     -2.89372045541335      0.01452608638618
  N   3.89509347422650      3.50202960819400     -0.23611900606113
  H   -1.29632857309082      1.01922155866225      0.30666079306759
  O   5.61854619373527     -1.87049079599938     -0.23258200998286
  O   0.97609341043933      2.44510318221278      0.07549044363683
  C   0.65284441472780     -3.10262791565396      0.23454354627445
  N   0.59436881201263     -4.25560590565544      0.26744182737606
  H   -1.39242173212132     -1.43784700315812      0.37246423769483
  C   -0.18032092555733      3.22829240307660      0.13500330111371
  H   -0.85529668211276      3.01364676963935     -0.70063867133813
  H   0.15239157365041      4.26251614976301      0.07354530991029
  H   -0.72235905070920      3.07687445325453      1.07486489453027
  C   5.55714395246562     -3.27233055433270     -0.19035979455248
  H   5.12822121518608     -3.62907585852734      0.75088352485676
  H   6.58333055714907     -3.62598634819605     -0.27439528081302
  H   4.96719423853251     -3.67535887354554     -1.01897651584016
