28
Coordinates from ORCA-job 694optt
  C   -0.48346377234143      0.78375667907826      0.15561019894568
  C   -0.44803519037044     -0.59498152308355      0.17513856157315
  C   0.71752638981984      1.51047417150825      0.11250650409493
  C   1.97441016022869      0.88595933263787      0.08840833652965
  C   2.01711858160781     -0.55355136185434      0.11000070550315
  C   0.77021765038701     -1.27191184674949      0.15323938778446
  C   3.22497760704059      1.60313377719558      0.04316215543258
  C   3.24409409078344     -1.20725658060168      0.08869552305082
  C   4.46141914455407     -0.49770185940210      0.04503310959091
  C   4.44386461216835      0.87721684729166      0.02303264008815
  C   3.34778707728274      3.01734256086684      0.01491845745619
  O   5.57083357629713      1.64581892547093     -0.01925008656525
  H   3.26038307939878     -2.28924843574092      0.10565814117069
  N   3.53799486133149      4.15664406651485     -0.01085563403626
  H   -1.43477880618455      1.29317385713896      0.17367358650302
  H   5.39242282294067     -1.04377697021835      0.02952361034048
  O   0.73702304342187      2.87489505638682      0.09256149756742
  C   0.77577185070629     -2.68985129690149      0.17526895015785
  N   0.78493874563629     -3.84482497583258      0.19413154307836
  H   -1.36895017867555     -1.16273221516919      0.20830594251176
  C   -0.47457031118160      3.57137378306024      0.10462909916167
  H   -1.08924938362413      3.32823569226451     -0.76890735352828
  H   -0.21403569577742      4.62765256136935      0.07886882368819
  H   -1.05215486640994      3.36255434358812      1.01172934826444
  C   6.80576834644723      0.98679123768676     -0.04096565394537
  H   7.56640582917191      1.76419045616870     -0.07486282926959
  H   6.90231036389457      0.34516289909440     -0.92317569642800
  H   6.94996037144614      0.37579081823155      0.85637113127922
