28
Coordinates from ORCA-job 696optt
  C   -1.00930498725342      0.39578312094179      0.24417207468747
  C   -0.97547623142946     -0.96932833336131      0.40462978037658
  C   0.18704895808346      1.11828972806048      0.10191173840386
  C   1.42689263952108      0.48006158299629      0.10282052463716
  C   1.49110059957910     -0.94930444381387      0.26720095335181
  C   0.24900905940833     -1.66098748372853      0.42709295161150
  C   2.66616009878647      1.18873021045118     -0.05268372166250
  C   2.72997733225744     -1.58012592190634      0.27296447976630
  C   3.93404754981006     -0.86550066221477      0.12250305957709
  C   3.89559863899377      0.50479124594782     -0.03868021247187
  C   2.65081196601234      2.59435426793076     -0.22196791379149
  O   5.00220562496684      1.28890888314917     -0.19302754922235
  H   2.76831803353342     -2.65486817623331      0.40042720436883
  N   2.58916073929434      3.73945995382186     -0.35825880860548
  H   -1.96974246878773      0.89399171003061      0.23873788367233
  H   4.87217536579290     -1.39937575192058      0.13562187046355
  H   0.15300144041700      2.19378136688291     -0.01735384609134
  C   0.26397449172673     -3.06118448603288      0.62428885220456
  N   0.29920568960943     -4.20773291047504      0.76738195416282
  O   -2.15705594636464     -1.66072093303764      0.56954840929405
  C   -2.56370442767654     -2.37915547324508     -0.57965665761866
  C   6.25074236110060      0.65242056057608     -0.18889231425912
  H   -3.50746897474242     -2.86303419683584     -0.33167023521053
  H   -1.83170514796025     -3.14212084418640     -0.85494719664277
  H   -2.71160371647064     -1.69622823767847     -1.42271396519730
  H   6.99423327636061      1.43504473149030     -0.32468676330450
  H   6.33238683696331     -0.07256214101840     -1.00514872289860
  H   6.43388119846771      0.13794263340923      0.75996617039857
