34
Coordinates from ORCA-job 706optt
  C   -1.06786876684992      0.52916382240449      0.11747178108665
  C   -1.10429474134869     -0.84215201859161     -0.01842095310088
  C   0.13545628212336      1.24372211782289      0.08260141568003
  C   1.35994778043068      0.59080147569719     -0.09346406425057
  C   1.37441444871856     -0.83726730595181     -0.24855011594459
  C   0.12001121262289     -1.53124789690728     -0.19626027695915
  C   2.61596105137486      1.27722889758180     -0.12887593829054
  C   2.59745613080613     -1.48321845918160     -0.44750257740522
  C   3.80571863632713     -0.77512999618678     -0.48049049467047
  C   3.84331864970865      0.59314564275054     -0.30871338293324
  C   2.61538666889577      2.68728781224351      0.01262116691862
  C   5.13882276876924      1.38458662574274     -0.26379713458978
  H   2.60636874422235     -2.55727408378522     -0.58574978444700
  N   2.62851932638986      3.83662650425801      0.13804223919777
  H   -2.00032803746463      1.06606319255244      0.24941909178362
  H   4.71960459398090     -1.31870422052096     -0.67614945531551
  H   0.12526175112098      2.32082222246616      0.19301882910995
  C   0.13436050641302     -2.94129691854848     -0.32238732728603
  N   0.13256088909979     -4.09388800331691     -0.42370488101942
  C   -2.43516403661851     -1.56608221984367      0.05810883312608
  N   -2.55389745817961     -2.52076992682933      1.17531135837896
  N   -2.76048682728997     -2.20615007142261     -1.20808169549585
  H   -3.19439403396691     -0.80111670487350      0.23860446682593
  N   5.38983213584305      2.01162585473173      1.04756444177265
  N   6.27413050591000      0.57227659391549     -0.67229561795345
  H   5.06185132835706      2.21123579889941     -0.97585305145941
  H   -3.55943517897779     -2.81402398349725     -1.06063322218263
  H   -1.99439766929759     -2.79964147702363     -1.50885400736805
  H   -1.88397452845419     -3.27424000270545      1.04554050735321
  H   -2.29915073898765     -2.05491637707891      2.04096306697568
  H   5.17109274274697      1.33862019025277      1.77718256821405
  H   4.75752114067002      2.79446063827679      1.18293854589685
  H   6.36373327877895     -0.21533459520257     -0.03708805354853
  H   7.10617144412507      1.13475687187163     -0.53309627809972
