24
Coordinates from ORCA-job 707optt
  C   -0.80094247797003      0.41066055352958     -0.24020649473889
  C   -0.87064754522916     -0.92353290208027      0.06127164345994
  C   0.43305894186620      1.06677021231438     -0.44462448457479
  C   1.65880783818250      0.35633131792790     -0.31711490807904
  C   1.59522973891562     -1.06239456440932     -0.03087271870416
  C   0.31307505054920     -1.67598815748368      0.16307180616619
  C   2.97129136218375      0.91121164400163     -0.44439575317960
  C   2.76843583448994     -1.82212431516688      0.04937580765629
  C   4.02524630337330     -1.24746226468767     -0.12520070087631
  C   4.12424112556485      0.10272332635181     -0.36020485311292
  C   3.27775493146807      2.29738901844262     -0.60378248608262
  H   5.08970929559481      0.57742184339220     -0.47507126189125
  H   2.68111821148026     -2.88241676873479      0.25057116390006
  N   3.69520173316541      3.37085099556503     -0.67433807505444
  H   -1.70729805739479      0.99321107266433     -0.34094287786956
  H   4.91744429752694     -1.85738055759044     -0.06499668967994
  S   0.33788031262665      2.75275709567815     -0.94876918362455
  C   0.23169168540881     -3.05808964011129      0.45873772642121
  N   0.16618380299558     -4.18669336914715      0.70039387796206
  H   -1.82556349789852     -1.40928907540783      0.21340584659512
  C   0.58046031115903      3.63326300767610      0.61747617018426
  H   0.50774944327753      4.69785099853926      0.39452030940090
  H   1.56819449460988      3.42889648357860      1.02448275665092
  H   -0.19398313594593      3.35317404515773      1.33012337907114
