28
Coordinates from ORCA-job 710optt
  C   -1.27195280443596      0.55186654560449     -0.73107098015957
  C   -1.23130451827970     -0.78880097506317     -0.41952610292302
  C   -0.08359760718791      1.34175014707591     -0.68131146832646
  C   1.16861676007498      0.73868348355621     -0.36738558673346
  C   1.19258480384628     -0.65856939139148      0.00701607843444
  C   -0.03430823195357     -1.40042360974724     -0.03620972270844
  C   2.44395786794038      1.39624590405623     -0.37492118229158
  C   2.38209045200314     -1.27891221962282      0.39726640673925
  C   3.59009816802112     -0.58716039804815      0.42591852925888
  C   3.61731390422816      0.72893112975931      0.03274385538074
  C   2.71346548938981      2.73105137319330     -0.81415570481030
  H   4.54647626058220      1.28313116485482      0.01723773909499
  H   2.34784906664030     -2.32376429210462      0.67899222617707
  N   3.11930055801112      3.76801223678764     -1.11539207836151
  S   -2.83605932293055      1.18144222492394     -1.27562754327759
  H   4.49920969400587     -1.08327368562633      0.73963716434387
  S   -0.19947416274162      3.06743620871997     -1.01675170869794
  C   -0.04237959053024     -2.77470643526811      0.30998184546858
  N   -0.04226570843657     -3.89353415592260      0.59729312121415
  H   -2.13938338309702     -1.37450204046193     -0.46500421331417
  C   0.15836261583315      3.74885487945845      0.62515941950744
  H   0.29885327982660      4.82176146565292      0.49690088946473
  H   1.07581594021079      3.32506943226568      1.02872028820283
  H   -0.66895241948280      3.55744202816969      1.30867159013057
  C   -3.33099067364468      2.21666059117766      0.12289598612350
  H   -3.24681334137090      1.65428416241579      1.05158735872414
  H   -4.37342028244526      2.49002287594426     -0.04054977772963
  H   -2.72000281407714      3.11643134964011      0.16550357106852
