28
Coordinates from ORCA-job 711optt
  C   -1.06904107205060      0.17109213508266     -0.16123141446422
  C   -1.00856769603937     -1.14170642450864      0.24468165086638
  C   0.07886185315408      0.95058728675890     -0.39093208447712
  C   1.37835660765720      0.39264786418400     -0.20431958866129
  C   1.46600842584846     -0.99981836311574      0.17224650384165
  C   0.26170084140855     -1.74487622982919      0.41751627511595
  C   2.61604278706242      1.08436046392324     -0.35587808461320
  C   2.71892464021316     -1.61452336880244      0.30122201165159
  C   3.90214455419064     -0.91372693950283      0.09731291008833
  C   3.85203057882020      0.42473202378190     -0.21671688627633
  C   2.75843806226776      2.48904337537587     -0.58821950355627
  H   4.75836041506299      0.99970080825887     -0.35171674823245
  H   2.75311466016314     -2.66278446987752      0.56875833540890
  N   3.04821409077014      3.59814192939910     -0.71219258000284
  H   -2.03771033301778      0.62443845707208     -0.32508226679667
  H   4.85608794904143     -1.41504723507810      0.19779251866212
  S   -0.20137440967407      2.56859894229650     -1.02997346441820
  C   0.36943121916941     -3.09110881323744      0.83534457844783
  N   0.48648183606627     -4.19550776904684      1.15781020956169
  S   -2.51139204851480     -2.00528598454768      0.57829950891119
  C   -0.12447517054263      3.59051226945624      0.46560591759729
  H   -0.34320974078304      4.61324596782792      0.15848560159491
  H   0.87152763758747      3.56181548615517      0.90186838122908
  H   -0.86987457669233      3.25681745840309      1.18586231284826
  C   -2.47101218146035     -3.29931648325959     -0.69073790407727
  H   -3.41704996306782     -3.83463214836942     -0.61481591710005
  H   -1.65164723578578     -3.99313828653638     -0.51524058771698
  H   -2.38649173085480     -2.84989195226374     -1.67864968543225
