28
Coordinates from ORCA-job 714optt
  C   -0.69143568496180      0.44539114929388     -0.37670470900962
  C   -0.56839391870148     -0.87872040550850     -0.04751952675868
  C   0.43100634485782      1.29816230015896     -0.48427521428118
  C   1.73461846563167      0.80983274338815     -0.20468255414403
  C   1.88051135084815     -0.60231707307041      0.07132765842270
  C   0.70859087158309     -1.42290669252335      0.16428519916450
  C   2.93444425656977      1.59468531358806     -0.17223278920201
  C   3.15493241624663     -1.14724490532477      0.23419841072478
  C   4.31046593719558     -0.37103832931795      0.16687370400552
  C   4.21282525150631      0.99300305808968     -0.01480091209744
  C   2.94087696752640      3.01883793142056     -0.18874601656381
  S   5.62275861803806      2.06079035647524     -0.04422611400055
  H   3.24320308436019     -2.21176657551376      0.41174817968965
  N   3.09267058022957      4.16087578658113     -0.11774304590168
  H   -1.66708868576902      0.86472931839640     -0.58477236575409
  H   5.26863722570418     -0.85449847194092      0.27994572101332
  S   0.10621506739243      2.91110613262564     -1.12234243198833
  C   0.83834408760330     -2.80039460553910      0.46679257688084
  N   0.94918612469151     -3.92396842334605      0.71389620791602
  H   -1.43990228718018     -1.51533211427405      0.03086909195621
  C   -0.17870411530298      3.88410323682021      0.38022381455207
  H   -0.50783340093218      4.87151721018995      0.05604387104480
  H   0.74063432173095      3.98805553880597      0.95201368307785
  H   -0.95908142850071      3.42053162977384      0.98209442515002
  C   6.97862730781580      0.89524178850356      0.12545959445816
  H   7.88507812130017      1.49772488157200      0.09499577759843
  H   6.99804227044934      0.18070427048274     -0.69674268311216
  H   6.93663085006722      0.36557495019291      1.07653044715873
