28
Coordinates from ORCA-job 716optt
  C   -0.98382347048424      0.44003884030540      0.18079325548454
  C   -0.95150910444563     -0.91639263277916      0.44647066183767
  C   0.18261916448754      1.15241904200546     -0.09288037347109
  C   1.43443283244928      0.51645032025965     -0.13027994102486
  C   1.50814687052055     -0.89324108676897      0.13318057345393
  C   0.29629348402400     -1.58822799802157      0.43408958473226
  C   2.64628740848388      1.21143816428548     -0.43117756437524
  C   2.75996309328993     -1.52920827286045      0.09578948338635
  C   3.92640657971453     -0.81682530923524     -0.17787649346047
  C   3.89409175728965      0.53960783151941     -0.44354724423677
  C   2.57049971623250      2.59855190318774     -0.71852831105243
  S   5.39835866178198      1.37349589754695     -0.84303364533102
  H   2.81492763546111     -2.59084266315311      0.29918270151709
  N   2.47876912527397      3.73017896036514     -0.92936700556944
  H   -1.93953043658027      0.94809112091522      0.18489914384362
  H   4.88211481659658     -1.32487550644282     -0.18197712781671
  H   0.12765441972991      2.21405336502589     -0.29627492192632
  C   0.37208247212203     -2.97533800317302      0.72145928393973
  N   0.46380152846974     -4.10696302213036      0.93231265277461
  S   -2.45577362689065     -1.75026841571614      0.84598873940791
  C   -2.60539465818735     -2.90267743755354     -0.54513112604208
  C   5.54782491032510      2.52604867363973      0.54798413596120
  H   -3.56715747999687     -3.40193810515178     -0.43102183020530
  H   -1.81111337712087     -3.64580343252494     -0.52269647563676
  H   -2.58964921793069     -2.35521463171460     -1.48593103186886
  H   6.50958325079323      3.02532637904925      0.43391171891913
  H   5.53201087170217      1.97867721260636      1.48883636292786
  H   4.75352277288880      3.26914880651402      0.52540479383143
