28
Coordinates from ORCA-job 717optt
  C   -1.28962235970054     -0.15031553635495      0.98560881300916
  C   -1.02980317198694     -1.48862563115937      0.84953780344135
  C   -0.32012031721032      0.81225858390844      0.65442510307417
  C   0.97000663681391      0.43936648654415      0.22802112199047
  C   1.25044125999715     -0.96911796049143      0.05943588015577
  C   0.22372787414792     -1.91333266947249      0.38029621912224
  C   2.04481040596175      1.34752766453201     -0.05939528479392
  C   2.49744445519366     -1.38313296036699     -0.42521726881702
  C   3.50044469976885     -0.46237501466094     -0.74287190276188
  C   3.28202153133948      0.87992747628469     -0.55525230958187
  C   1.98594394158155      2.74151166644285      0.20272331641529
  H   4.05655210750381      1.60480944906579     -0.76919677444464
  H   2.67252732574919     -2.44307215400300     -0.55781865384941
  N   2.01802678710110      3.87326282600764      0.43592112876179
  H   -2.25357896660104      0.19114007138231      1.33668541750464
  H   4.45221857006521     -0.80867043993461     -1.12493085013338
  N   -0.68702639265590      2.18166987795580      0.77403171328976
  C   0.47217232128843     -3.30098098390253      0.22795919504547
  N   0.67555940592197     -4.43111234492028      0.10279194331225
  H   -1.78034379821439     -2.22601807844696      1.10144987337368
  C   -1.72035181481961      2.80189203397227      0.15594955227268
  H   -0.08652141804551      2.82706562549778      1.26471239628009
  O   -2.01572252096961      3.96711550200086      0.31071414286337
  O   -2.40858221454405      1.97582153211102     -0.66106224562219
  C   -3.49248146697550      2.58878300075038     -1.33643470732584
  H   -3.14253294304590      3.40680242189535     -1.96590937237187
  H   -4.21907975780793      2.98344864100731     -0.62609160345764
  H   -3.94110017985674      1.80738091435488     -1.94456264675251
