28
Coordinates from ORCA-job 718optt
  C   -0.49284229559999      1.38464935906960      0.27406171186274
  C   -0.82780418246039      0.06532962665884      0.47037449581916
  C   0.84402335944307      1.76064274834943      0.06445708918145
  C   1.87208003258020      0.81051311181241      0.05044141048908
  C   1.55650234819970     -0.58134341739796      0.22803891263323
  C   0.18121438398702     -0.91910979973060      0.43092363043371
  C   3.24461790674293      1.15516016069647     -0.14636492346544
  C   2.58387568569457     -1.53259913699947      0.19617162326723
  C   3.91712038236853     -1.15608662817291     -0.00330357044238
  C   4.24875484456090      0.16973739223153     -0.17224249057565
  C   3.59987345393709      2.51862744344614     -0.31772370633727
  H   5.27652604999427      0.47178492084851     -0.32562245959428
  H   2.32919756525041     -2.57659346789426      0.32998305115272
  N   3.87703677672123      3.63127171685686     -0.45427623149286
  H   4.69146281307086     -1.91230740733474     -0.02453552499523
  N   -1.44150352035657      2.44172175212854      0.33583239002038
  C   -0.18047430147408     -2.27719452726838      0.61439480843386
  N   -0.46559947205944     -3.38699313847132      0.76382236045428
  H   -1.84945722053537     -0.22775679462413      0.65307067586969
  C   -2.73138882639458      2.50796809569088     -0.06670233485540
  O   -3.40996412315974      3.51267602745341      0.00199022625541
  O   -3.19601423600152      1.34333862906169     -0.55290098285550
  C   -4.54224537915751      1.38301096072688     -0.99945445428638
  H   -4.65867571774980      2.10425504643966     -1.80780162968691
  H   -5.21041313442749      1.65949300923306     -0.18447838554376
  H   -4.76458378656820      0.37905326323646     -1.35076228790021
  H   1.08623694300261      2.80432109245044     -0.09875888698143
  H   -1.08396634960872      3.34029996150287      0.61903548313973
