36
Coordinates from ORCA-job 720optt
  C   -0.36551110303412      1.03337056623895     -2.06633173323779
  C   0.62417829839912      0.69272879643881     -2.95406398765682
  C   0.97380018221092      0.18398160494473     -0.18101662560367
  C   1.99173277504380     -0.22813299582751     -1.11736243739604
  C   1.78133072921041      0.04471428753212     -2.50556936449092
  C   1.23807948943083     -0.06646885245625      1.20871540979775
  C   3.15169331482836     -0.86701498043358     -0.66397633181268
  C   3.36118967651687     -1.11671844646745      0.69541966275908
  C   2.42440505334537     -0.71984331295234      1.61595030513540
  C   0.37996182403790      0.32153103116370      2.27300041226664
  H   2.57641411223900     -0.89187943257727      2.67334973277822
  H   3.89403727414792     -1.16607513986136     -1.39257414721401
  N   -0.26482312105284      0.58843479391433      3.19469320567592
  H   4.26439462996469     -1.61600040611142      1.02164302159738
  N   -1.26794173894127      1.07867964356353      0.19879577523235
  C   2.77060674567007     -0.32991641393070     -3.45094796311145
  N   3.57962331196926     -0.63942997450027     -4.21412174002763
  C   -1.76810706084346      2.31427187580465      0.41357929823548
  O   -1.49049640576283      3.32180506577561     -0.20442547459198
  O   -2.67296826178198      2.28836906169415      1.41222600162119
  C   -3.23378779744009      3.54934765423042      1.73901154125591
  H   -3.77063344311467      3.96505817552892      0.88652776442423
  H   -2.45463418395517      4.24817805236825      2.04141623757175
  H   -3.91510296386508      3.36401689598535      2.56489043653322
  H   0.49673922299237      0.90793749254982     -4.00538317810414
  C   -0.20090432415843      0.77827444616795     -0.68570328979979
  N   -1.54871587309195      1.67450076365917     -2.51328203480076
  H   -1.52046869801540      0.39482581003070      0.89658490641766
  C   -2.41788512807104      1.24747702458025     -3.45513416748742
  H   -1.80456966664193      2.53887451585702     -2.05193458699948
  O   -3.40940573145592      1.85588142505787     -3.79999856250324
  O   -2.07282052770496      0.05485267163215     -3.98350499703186
  C   -2.96801071701370     -0.43500753943545     -4.96729827670285
  H   -3.04103942536784      0.25972455201046     -5.80371824526543
  H   -3.96308973119072     -0.58009939791964     -4.54694953762924
  H   -2.55307073750352     -1.38389931425575     -5.29686702983494
