36
Coordinates from ORCA-job 721optt
  H   -3.94195277236716      2.44337341819173      3.51726379651976
  H   -3.33543932161983      4.06681601056304      3.95155073427878
  H   -4.20739441945880      3.80264842729439      2.41344742459445
  C   -3.51471844553365      3.37081377392017      3.13613930533760
  O   -2.80343819535404     -0.02185868320739     -5.38036812380413
  O   -3.28512370451997      1.75440517464979      1.09530524622630
  H   -3.10672618116642     -0.06188500516502     -2.95008438541661
  O   -2.25020261326854      3.13623567953799      2.54387745735482
  H   -2.42779614976926      1.68819868909712     -1.11162164802488
  C   -2.26685371626929      2.26484220293712      1.50170488977031
  C   -1.96717327299320      0.26405832866779     -4.55283017581578
  N   -2.16180401113187      0.16668191058818     -3.21114048067102
  H   -1.06374402452512      1.00639039344936     -6.88120298003224
  C   -1.49894599703507      1.13931978596680     -1.11881512351448
  N   -1.00627490919727      2.10084610179748      1.03853409264504
  C   -1.20236301380622      0.31997120420510     -2.17732740054160
  C   -0.34543465724823      0.55851353551491     -6.19597739365665
  O   -0.75165063234134      0.74660267604880     -4.84811741388831
  H   -0.29811505019351      2.56063167434992      1.59061851659647
  H   0.62325402457118      1.04295557716509     -6.28154387989257
  C   -0.61861568516224      1.25981971698775     -0.03043296564504
  H   -0.24850925906862     -0.50744727298158     -6.40324041995685
  C   0.00048683985417     -0.40724442599845     -2.18903603138271
  C   0.27070040200583     -1.31331905413555     -3.24327316020049
  C   0.63142392768526      0.60984811247146     -0.01654388263631
  N   0.50055606513184     -2.05400722899481     -4.09887592271734
  C   0.95381333123384     -0.25005472145683     -1.13256994853350
  N   1.48163001147243      2.28017083645476      3.05858823993274
  C   1.51760898684882      1.57613432032917      2.14064985717654
  C   1.63020191211274      0.72172599278167      1.01658133209611
  C   2.17042827233752     -0.94332449844825     -1.15888376290824
  H   2.37802458162781     -1.58843244795132     -2.00228939684474
  C   2.84098558350332     -0.00475368683582      0.94317190657900
  C   3.10372785061645     -0.82437348887405     -0.12415372882865
  H   3.55668566753713      0.10936893141880      1.74670693151616
  H   4.03427536899136     -1.37539189973939     -0.16908118721184
