36
Coordinates from ORCA-job 723optt
  C   -3.19890327385875     -0.13684715266634     -0.29386220755686
  C   -3.12494249443858     -0.72880181641363     -1.52924432931918
  C   -1.14990071944412      1.14902072112643     -0.72755655050807
  C   -1.06393205281543      0.52261275828081     -2.02508267267158
  C   -2.06948753339531     -0.41853774421161     -2.39443678369143
  C   -0.12231561863358      2.10938425601145     -0.41722074595465
  C   -0.01347586292888      0.82591993049689     -2.90618444623309
  C   0.99679902751782      1.71796055590786     -2.53653930289077
  C   0.94388494928679      2.35117808197166     -1.31868600785614
  C   -0.09878430056929      2.90253857909820      0.75269395696631
  H   1.71621343670961      3.05445345659336     -1.03311948687522
  N   -0.05558584002438      3.59434999089226      1.68068868320022
  N   -2.33981597678546      1.35214223701126      1.40464945383843
  C   -2.00275312161586     -1.06006342709750     -3.66082280970900
  N   -1.94607617832365     -1.58224142280676     -4.68813009449175
  C   -2.78736073321887      0.71875648358472      2.51390404074882
  O   -3.17333822420834     -0.42171387156015      2.61879080719809
  O   -2.75340764405507      1.58003361166269      3.56456327592321
  C   -3.15798705021244      1.01834356342699      4.79960590513316
  H   -2.52015216077674      0.17674196382973      5.06963231663078
  H   -4.19003861450844      0.67086512638978      4.74830948838296
  H   -3.06225984912995      1.81472292667502      5.53315535555188
  C   -2.21788985155373      0.77875981234080      0.11683797647707
  N   2.06206873995994      2.06478548185399     -3.40911989749036
  H   -1.97318126571764      2.27666624742684      1.57381921951766
  C   2.74681401780679      1.32355570133736     -4.31579285749456
  O   3.68016621118739      1.75301560638305     -4.96253117793758
  O   2.28914236463962      0.06903427381793     -4.42417711699382
  C   2.95008078666242     -0.73088105525257     -5.39337572575464
  H   2.87750675789566     -0.27476548102588     -6.37988870745383
  H   2.43766983538296     -1.68859827328755     -5.37845094876013
  H   4.00216477848471     -0.85212172699064     -5.13713466665063
  H   -3.87697202810531     -1.44040405471466     -1.84260299263408
  H   -3.99887613134390     -0.38264007548391      0.38658808114901
  H   0.01130631051846      0.34702991724887     -3.87179856034526
  H   2.47626930961159      2.97203481814315     -3.27027047144492
