31
Coordinates from ORCA-job 732optt
  C   -1.57940161056217     -0.78912475860999     -0.42757345280088
  C   -1.11756192749907     -1.44587724573779     -1.56814670740333
  C   -0.74625773412269     -0.00559632096014      0.35513466404581
  C   0.19865434650205     -1.33285019869192     -1.95459779423285
  C   1.09510890683789     -0.53866190598440     -1.18327300596799
  C   0.62168821283242      0.14097316135358     -0.00323550524291
  H   -2.61987423617336     -0.89053302631143     -0.14020194110178
  H   -1.79991484809712     -2.05072572213963     -2.15607020485725
  C   -1.35504857860918      0.65755014881844      1.56308969048588
  C   0.68927112937992     -2.04264396495069     -3.18403710852529
  C   1.57721549655392      0.92657417080041      0.73178808473493
  C   2.44237927088266     -0.41591704201403     -1.57192472455151
  C   3.37590378459142      0.35347127021748     -0.85398860256716
  C   2.95120503953995      1.04303581201605      0.32168823110915
  C   1.26176216646607      1.64511279400223      1.91018111790680
  H   2.79078935785054     -0.92792971120153     -2.45907928628117
  C   3.90367422102765      1.80624711444677      1.02467222803492
  C   4.72433154220106      0.46567154924642     -1.26059924322345
  C   5.63376026950631      1.22185896925790     -0.55111624406125
  C   5.21814344475322      1.89644812078157      0.60057277098866
  H   3.59371068960372      2.33328702148570      1.91806760552678
  H   5.92370758322934      2.49305058908767      1.16599894569870
  H   5.03259154721386     -0.06338770846900     -2.15617531087280
  H   6.66259058557753      1.29214538686190     -0.88393172032771
  N   1.11573704511339      2.26695574343842      2.87554371483698
  H   -2.41190488132268      0.39557795547165      1.62396923698436
  H   -1.27447430547780      1.74439443539462      1.52151137185604
  H   -0.87259211040605      0.34864925671505      2.49100851699615
  H   -0.12271551927567     -2.60255466378855     -3.64898845233637
  H   1.49674603832650     -2.74289034860415     -2.94922674396854
  H   1.08672507355630     -1.33991088193262     -3.92279013088287
