31
Coordinates from ORCA-job 733optt
  C   -1.54598013815761     -0.89552727753736     -0.39793728646837
  C   -1.07767393070086     -1.54817722284410     -1.53494335864574
  C   -0.72719213980734     -0.06271070186282      0.35236946010590
  C   0.22955537300113     -1.36932703098290     -1.92747413513098
  C   1.11222678931547     -0.51858299039428     -1.21757850018984
  C   0.61841970666507      0.16396292232500     -0.04808691340864
  H   -2.56790015625339     -1.05146609571043     -0.07098846185473
  H   -1.73117295762461     -2.20645879474889     -2.09511129240154
  C   -1.31696984874967      0.53878177419583      1.60164107667779
  H   0.59492854270270     -1.91067895548109     -2.78830384964647
  C   1.53251278141069      1.02542085670629      0.64328106538621
  C   2.45697264143133     -0.35741491785832     -1.64671344648858
  C   3.38715203310239      0.35773170601278     -0.85313430802914
  C   2.92339292375329      1.08216702078065      0.29340682974869
  C   1.14416594236937      1.90383389695436      1.68336400725294
  C   2.89033748530653     -0.99034358775179     -2.93941112170938
  C   3.84984374373226      1.83963410756008      1.03583912309982
  C   4.77587633520043      0.39977419535959     -1.13806133003279
  C   5.65997637108668      1.14088827250703     -0.38008626700079
  C   5.19295419771247      1.87691965184385      0.70939361037010
  H   3.49259016365966      2.40253617704294      1.88862519003209
  H   5.87696438697706      2.46764932945892      1.30643104342808
  H   5.16473897086918     -0.17883121899246     -1.96419834611807
  H   6.71404442841491      1.14445478027179     -0.63169308820184
  N   0.92085455686762      2.66950577876520      2.52209806907567
  H   -2.31145019468427      0.12340690305690      1.76810204871378
  H   -1.40480307725238      1.62407351723761      1.54580301417201
  H   -0.70564555225497      0.32513093396966      2.47961536059370
  H   2.11978680126067     -0.87854172878395     -3.70485880461058
  H   3.09042388099107     -2.06558328671357     -2.84236087270843
  H   3.79155993965506     -0.52352801438653     -3.33125851601078
