33
Coordinates from ORCA-job 747optt
  C   -1.59189753631250     -0.55947439995409     -0.30649069965976
  C   -1.19706711611488     -1.32990499417207     -1.40274741804424
  C   -0.71209431618790      0.23987878961448      0.41689124901908
  C   0.13407004824092     -1.25824373718008     -1.79556575020739
  C   1.07442389987482     -0.47219349441688     -1.10816337605411
  C   0.67061868007592      0.27251770679987      0.06353324852864
  H   -2.64139929715868     -0.54104414751188     -0.03494135377236
  C   -2.20103221966715     -2.13406082649462     -2.09585663754779
  C   -1.27239395268035      1.08304357438000      1.48341114314469
  H   0.47895249528843     -1.80948794345350     -2.66287874466505
  C   1.68692788483831      0.96560122877933      0.77858967991093
  C   2.40864582747980     -0.40916901010864     -1.55099831954996
  C   3.39175728719121      0.34215939887285     -0.89196232097234
  C   3.04425243946082      1.04040651774095      0.30447717392243
  C   1.46699244704695      1.56338681329805      2.04763290525458
  H   2.68349595436248     -0.96466518158137     -2.44133774128235
  C   4.05036870272734      1.76106625495712      0.97380524258231
  C   4.72556663461119      0.41625870610452     -1.35998024580316
  C   5.68551194531601      1.13588618524293     -0.68556585220115
  C   5.34523041694791      1.81254814977080      0.49249315712342
  H   3.79649812287355      2.28608845423079      1.88610134768592
  H   6.09576847841471      2.37851438078212      1.03018404967097
  H   4.97776833871414     -0.11604913471973     -2.27065940090767
  H   6.70018421779157      1.17721580398357     -1.06318510139963
  N   1.39401928933639      2.06349325758060      3.08673144478170
  C   -2.27854020859038      0.74425685990985      2.28715444111938
  H   -0.84063997081164      2.07024432828008      1.59842077246328
  H   -2.72089788206785     -0.24489240878624      2.25914567744862
  H   -2.66716703541125      1.44261297831380      3.01663701653355
  C   -2.01798747222840     -2.95309292716443     -3.13365632316535
  H   -3.20771043457675     -2.03899583791699     -1.69511815058091
  H   -1.04468359746092     -3.10508792991019     -3.58316868366471
  H   -2.84730207132389     -3.50014741527098     -3.56199242971157
