33
Coordinates from ORCA-job 750optt
  C   -1.45475783044032     -0.59719803730363     -0.42110972449723
  C   -0.98392860448906     -1.33938915409709     -1.50064632623825
  C   -0.61091817390581      0.21210552554634      0.33769531912940
  C   0.34616405209633     -1.25510197425160     -1.84714017415720
  C   1.24887191134980     -0.45835441340763     -1.11263579323978
  C   0.78136795536290      0.27269979673461      0.03306340167979
  H   -2.51191487051535     -0.59741712738005     -0.18799407435284
  H   -1.66631758882916     -1.94887590519523     -2.08043606100594
  C   -1.22508168695345      1.03340734698459      1.39346127316742
  H   0.72868131851556     -1.80249715889159     -2.70138507039041
  C   1.76379103160328      0.99604838173335      0.77785818467001
  C   2.60078205203095     -0.38375050869679     -1.50511031611347
  C   3.55960169858319      0.35946148375603     -0.80728502769617
  C   3.13599810665090      1.08756705500281      0.35623156678193
  C   1.48114379881164      1.61572870500922      2.02176369593900
  H   2.87910038633230     -0.91627213504028     -2.40476413118530
  C   4.07999724310908      1.86354033185074      1.04763563297959
  C   4.93277308270872      0.43042170052820     -1.20544782536769
  C   5.82182406729333      1.21868033719716     -0.48385395586787
  C   5.39941700061648      1.93452387333382      0.63037200873769
  H   3.76486401417535      2.41170341305874      1.92592403211746
  H   6.10855153620736      2.53116864191321      1.19084689788949
  C   5.41373371702118     -0.35567521127034     -2.34319087801784
  H   6.86553293259036      1.23435418434787     -0.77378542342161
  N   1.34787494461387      2.14049555213114      3.04316105961646
  C   -2.23803652483873      0.65420194734831      2.16917162530016
  H   -0.83079253035244      2.03390023871331      1.52402595773213
  H   -2.64438099256490     -0.34963438296809      2.12268728939157
  H   -2.66866650025982      1.33288480723015      2.89373344662938
  C   6.41307896788313     -0.02517673620260     -3.16272627601581
  H   4.91240824572880     -1.30375059297476     -2.51663561800676
  H   6.93003479222216      0.92318163032925     -3.07519211313659
  H   6.73433244764225     -0.69388161506923     -3.95093260305069
