33
Coordinates from ORCA-job 751optt
  C   -1.55700038731214     -0.63502240695147     -0.36168085254242
  C   -1.08780410779585     -1.39637131541467     -1.42885505888529
  C   -0.70906897233600      0.19155771454655      0.37630082978897
  C   0.23763454158517     -1.31222823790101     -1.78923586607000
  C   1.14341122658503     -0.49184388346222     -1.07955790120417
  C   0.67817682107836      0.25088812933558      0.06350906175012
  H   -2.61279257437907     -0.63410645253478     -0.12330197443467
  H   -1.77090827586390     -2.02173099602940     -1.99095246155750
  C   -1.31669601563466      1.03291342498538      1.42024563425581
  H   0.61558301827571     -1.87292412519040     -2.63678051339690
  C   1.66347494507960      0.98182208867437      0.80629662406312
  C   2.48520422781267     -0.40430719334482     -1.48357900797971
  C   3.43219917005070      0.38467797210317     -0.80871572750384
  C   3.02212175363603      1.08507340184266      0.37273731095256
  C   1.39098098497146      1.58442699930030      2.06192625011979
  H   2.79987947866698     -0.96682667498060     -2.35615967756220
  C   3.99619355284052      1.83490907146121      1.06323122830416
  C   4.76779384604284      0.48876451140835     -1.23963568453330
  C   5.71207538038946      1.24107626684660     -0.55174233180914
  C   5.29740496397321      1.90942261383154      0.61249855883476
  H   3.70965853140006      2.36230170846154      1.96394675628010
  H   6.02150760034097      2.49815793908914      1.16548028088175
  H   5.04985417723137     -0.05043059673584     -2.13717759002376
  C   7.10492059043387      1.36640153641578     -0.97668507464317
  N   1.26751565216108      2.09469593234326      3.09153314052239
  C   -2.33189449645223      0.67375833857088      2.20240970867263
  H   -0.91414925867685      2.03228194267591      1.53456774088366
  H   -2.74670721011738     -0.32714215964649      2.17151927016342
  H   -2.75569105594408      1.36666331022441      2.91745811405010
  C   7.68794151976781      0.82283574365306     -2.04712467127780
  H   7.71914002617364      1.98303666103427     -0.32417801483552
  H   7.14455175119072      0.19863841064360     -2.74532251934808
  H   8.73638859482478      0.99199032474407     -2.25362558191587
