33
Coordinates from ORCA-job 752optt
  C   -1.53657697606877     -0.56878446095821     -0.26702468040669
  C   -1.12071605298769     -1.35196540817188     -1.34053516442495
  C   -0.65151249579974      0.24782702200067      0.43348185287228
  C   0.19508263195465     -1.29696500691745     -1.74359478887093
  C   1.13652903254756     -0.49155309472902     -1.07199056889301
  C   0.73004453803325      0.27460727292706      0.07626372951908
  H   -2.58396763006148     -0.54309563750308      0.00570385468114
  H   -1.83492222562360     -1.96761095407338     -1.87351281512450
  C   -1.20845960639771      1.11706854137507      1.48213761822063
  H   0.53444832269917     -1.87235282517823     -2.59780182263604
  C   1.74871221709173      0.99156635682194      0.77732267662687
  C   2.47250920750862     -0.43821336555597     -1.51934851721394
  C   3.44745635290202      0.33019748799936     -0.88733842456689
  C   3.10369885290081      1.06396204011865      0.29716508819203
  C   1.52725685058481      1.61133542072559      2.03315405427061
  H   2.74577132861913     -1.01633846891236     -2.39594291414103
  C   4.10329956244085      1.80330173269990      0.94085616016886
  C   4.78353734195333      0.40093461226370     -1.35891854922650
  C   5.73303642672885      1.14221281165908     -0.70344534361902
  C   5.41420420986105      1.85989465451502      0.46545972237469
  H   3.83964023756116      2.34849712798686      1.83812622499666
  C   6.46450668128714      2.62819359197775      1.12386480517611
  H   5.04063394382860     -0.15198069718355     -2.25554800236569
  H   6.74903584024361      1.18088085729883     -1.08254800456630
  N   1.44939745433996      2.12407197378221      3.06630328179765
  C   -2.20370256694858      0.79040029289076      2.30334887602629
  H   -0.78241270007226      2.10977456687314      1.56633983021321
  H   -2.63718138827872     -0.20309081907313      2.30420725126833
  H   -2.59045909582634      1.50299113582842      3.01997907293021
  C   6.37145089008148      3.36092946682746      2.23753566947576
  H   7.43222797135546      2.58201352732561      0.62852073097803
  H   5.44612455157598      3.45663777472650      2.79134189345249
  H   7.23364629196555      3.88678246963261      2.62582720281458
