33
Coordinates from ORCA-job 756optt
  C   -1.49106622959619     -0.72504735586196     -0.36494803266619
  C   -1.09149736337357     -1.40716357968973     -1.52757515372315
  C   -0.60065974177286      0.03629297492025      0.36191283647308
  C   0.23337610218280     -1.29373124978156     -1.93083596152412
  C   1.17497383551371     -0.52695856469226     -1.21765674353722
  C   0.74517107172050      0.16025966719592     -0.03220545611578
  H   -2.52233567524800     -0.80403524060449     -0.03827108270121
  C   -2.08419609898127     -2.20053970153369     -2.25127879367330
  H   -0.93088423244592      0.55286937709689      1.25516764991916
  H   0.57441033825088     -1.80636382555258     -2.82336746065048
  C   1.69820861927371      0.93303661200862      0.68713945986914
  C   2.51685565667364     -0.41359189957478     -1.62783621754811
  C   3.46339907577106      0.34925701522800     -0.91817553019909
  C   3.05370601281215      1.04327980477787      0.27038478385961
  C   1.28386307809735      1.61518869201831      1.85909172219204
  H   2.83380460588405     -0.93494396836553     -2.52477743659215
  C   4.01432894794082      1.80024690531029      0.96753052080248
  C   4.80477509881248      0.45777335928835     -1.33332134485347
  C   5.74090549833550      1.20945004326039     -0.63394194364175
  C   5.31846118635050      1.88015348399558      0.52726134201815
  H   3.71146083987161      2.32563782879377      1.86531471010652
  H   6.03824526092805      2.47065684942618      1.08372495567393
  H   5.09698286751927     -0.07120623173718     -2.23361584947820
  C   7.13825362493351      1.33496047446152     -1.04652956531175
  N   0.94766610740827      2.17003541333458      2.81494554524898
  C   -1.90814256655761     -2.92111230439482     -3.36055815010562
  H   -3.07868005717867     -2.18515273331436     -1.81085127959110
  H   -0.94952689923248     -2.98886581784345     -3.85932901434863
  H   -2.73024238914070     -3.46860611770816     -3.80203677439320
  C   7.73582042749250      0.77620367312075     -2.10060280397706
  H   7.74264967066159      1.96531109113981     -0.39801422602038
  H   7.20467068156502      0.13539434153729     -2.79310621766578
  H   8.78534264552820      0.94874098374017     -2.29866848784530
