43
Coordinates from ORCA-job 766optt
  C   -1.67266919670015     -0.92033734785526     -0.58607091958160
  C   -1.19530278838762     -1.46041496295620     -1.77354671771252
  C   -0.87477586142532     -0.16200582897412      0.26369525725767
  C   0.13231188972211     -1.33756917146034     -2.13143962610654
  C   0.99949113048723     -0.57405596935458     -1.29266733498752
  C   0.45946208261685      0.12361681954974     -0.13954478156641
  H   -2.69735131938627     -1.12271467794443     -0.29314141247345
  H   -1.86789843099373     -2.02990444821222     -2.40643664154288
  C   -1.54274358839234      0.17772138150354      1.59789169836611
  C   0.56934920653162     -2.03309383562079     -3.41170654151363
  C   1.34118201379198      1.05337311316692      0.52087765299599
  C   2.38054381733902     -0.48110927616852     -1.55892788956502
  C   3.27340904311890      0.27443436126181     -0.77980928128422
  C   2.75481640442556      1.08925713851897      0.26694812148745
  C   0.87681870660368      2.10534611568653      1.33585954726923
  H   2.80308883187861     -1.02788064313741     -2.38611844078550
  C   3.65067873716036      1.90341493147115      0.98622198313336
  C   4.66437888457080      0.28867463239469     -1.03108516405053
  C   5.51987041595525      1.08529980646700     -0.30092530418316
  C   5.00635636923645      1.90307936753512      0.71203674464130
  H   3.26171362187291      2.53936543490595      1.77163931168290
  H   5.67004620680901      2.53747574821600      1.28678383127768
  H   5.04766926650250     -0.34028666647336     -1.82774317792370
  H   6.58238220582904      1.08204681679655     -0.51305535673621
  N   0.59261821981870      3.01766228940172      1.99034059571877
  C   -0.67713953986995     -0.02343341074588      2.84791879918303
  H   -1.33360994916273     -0.14625606893854      3.71381796438906
  H   -0.01714780287367      0.81240000528289      3.05796946192482
  H   -0.07191599399570     -0.92641375878291      2.74966514976396
  C   -2.30954321639700      1.50628763329358      1.60511519074306
  H   -2.31627681275768     -0.59135289336398      1.68169832959606
  H   -2.86249716670521      1.61053901436141      2.54338498875696
  H   -3.02841676707740      1.52156902829741      0.78309693184534
  H   -1.65158487045186      2.36504782930466      1.50652116741359
  C   1.10684127146294     -1.08656897611649     -4.49195011155375
  H   0.38818609121517     -0.28758499051313     -4.68029445465048
  H   1.26349450392699     -1.63432148220143     -5.42522891190103
  H   2.04876294062909     -0.61855554173902     -4.21295557094931
  C   1.49177884694897     -3.23727016426909     -3.18221823197299
  H   -0.35327677087880     -2.45084694126269     -3.82649184914546
  H   1.66522157549365     -3.76396731548086     -4.12470532715717
  H   1.02970531460297     -3.93362248263567     -2.48069520728353
  H   2.45950247690483     -2.95417461320867     -2.77216447281960
