43
Coordinates from ORCA-job 767optt
  C   -1.76894269943346     -0.95924091804960     -0.40424096286098
  C   -1.30582044040606     -1.61959540264395     -1.53456521894247
  C   -0.93750176396760     -0.16811062164188      0.38524975387813
  C   0.00647618568915     -1.46624339429838     -1.91761710640918
  C   0.92648409355797     -0.71243314846720     -1.14773050863573
  C   0.45103707222782     -0.10207023569156      0.07774222661340
  H   -2.82185514449700     -1.01809039404520     -0.15052415290961
  H   -1.98522975146193     -2.20729461350034     -2.14058238114966
  C   -1.68450527069228      0.62514236290382      1.45971379279235
  H   0.32027874125484     -1.91262259273756     -2.84963563859290
  C   1.44730554452654      0.53906422855304      0.89047601226430
  C   2.27816879179814     -0.54853994043386     -1.57492109218464
  C   3.09890687765266      0.42387361787379     -0.94122056821203
  C   2.71249776120933      0.92814199677420      0.33999981816780
  C   1.31761839044331      0.72916231053496      2.27938541116363
  C   2.79358799218931     -1.40118300836101     -2.72223205323153
  C   3.59472643753449      1.78049598813057      1.03266377938541
  C   4.30506305284745      0.91910687299261     -1.49652959616891
  C   5.13354949700517      1.78174027482010     -0.80920935766235
  C   4.78859156336156      2.19727665690286      0.47892822801088
  H   3.31130113078351      2.12332263243931      2.01991171774927
  H   5.44020083397679      2.86041163433790      1.03468515089341
  H   4.57976996717544      0.63282621714093     -2.49988443797607
  H   6.04605166460848      2.13679281938075     -1.27326181963439
  N   1.31016596335732      0.89832539110327      3.42540142746994
  C   -1.78684054653949     -0.08747519946309      2.81413818151855
  H   -2.22353974939963     -1.07909781105240      2.67710139623254
  H   -2.43695359394559      0.48162861056517      3.48523128722333
  H   -0.82033030998011     -0.19771692892231      3.29783296868197
  C   -1.29884876506791      2.10451046721344      1.58733055456669
  H   -2.70895945846616      0.64677622703472      1.07694489901738
  H   -2.13471964980321      2.64773471533276      2.03669418527627
  H   -1.10455998759267      2.53408302769121      0.60297984370417
  H   -0.42874178622088      2.27305778945733      2.21423752876093
  C   2.66711155379254     -0.71897517557275     -4.09101240160878
  H   1.63414551022035     -0.41508198466981     -4.26973720158587
  H   2.97469639259731     -1.39345165020681     -4.89608877738204
  H   3.28658988317505      0.17755257024740     -4.14559718412288
  C   4.19505482358392     -1.99774834563350     -2.51784742619853
  H   2.14735334002219     -2.27805585473161     -2.75290611930490
  H   4.32988976417230     -2.84049116604392     -3.20125004173009
  H   4.30744783337890     -2.36361453815637     -1.49639442100343
  H   5.00350825533194     -1.29510348710708     -2.70610969586334
