43
Coordinates from ORCA-job 768optt
  C   -1.61935044829896     -0.99176702955375     -0.43035289018821
  C   -1.07949234504424     -1.79279680674190     -1.43395371981207
  C   -0.85309190174968     -0.11025633634261      0.33131633440076
  C   0.25619125566898     -1.67386508630607     -1.72808244636018
  C   1.09200536568899     -0.80846423919610     -0.98966229778693
  C   0.55814370174920     -0.06712428083853      0.12511319822227
  H   -2.68803237732341     -1.02965749947313     -0.24995349259594
  H   -1.71501885633642     -2.46626528516960     -1.99637861320986
  C   -1.67982780369848      0.77834125211585      1.26071541737205
  H   0.69927670281491     -2.24307548077779     -2.53771665207266
  C   1.52962417140082      0.65176862578880      0.90835695958400
  C   2.44536726501232     -0.68409266747975     -1.36409142062999
  C   3.35639537158862      0.15296213115279     -0.69726266970867
  C   2.89654816515442      0.82395900699560      0.47983354619510
  C   1.27760571069737      1.12122922261682      2.21330936856869
  H   2.76077936507520     -1.25631992052647     -2.22614786590646
  C   3.80574258887672      1.62271951789532      1.19803675247625
  C   4.71008075963699      0.32860634252269     -1.12117902955108
  C   5.55823075895256      1.12859313615455     -0.37846973797616
  C   5.11111355831975      1.77295468877575      0.77852734446887
  H   3.46872931727049      2.12499310174936      2.09537344600910
  H   5.79282304090725      2.39257480363496      1.34838069311941
  C   5.18133241768646     -0.34570167476061     -2.39470575960972
  H   6.58795411830099      1.26024340924298     -0.68510955267875
  N   1.17477643950876      1.52184562342264      3.29506726351568
  C   -1.79792891492434      0.25564777562250      2.69805974563378
  H   -2.19583975993633     -0.76138211102079      2.68484814363089
  H   -2.48949922679786      0.88484531072580      3.26600106039667
  H   -0.84691516846720      0.24831335912395      3.22196839771954
  C   -1.36955022152117      2.27766499945380      1.17593698098944
  H   -2.69079222300696      0.69332101124702      0.85189140445362
  H   -2.19940936169826      2.83646400373818      1.61734258084815
  H   -1.27413361600143      2.58034907373684      0.13133891119538
  H   -0.46637210160093      2.56874337258038      1.70216336297283
  C   4.61787038570891      0.37245962103670     -3.62774441410039
  H   4.87217211995076     -0.16342772922245     -4.54643709162036
  H   5.04311111744958      1.37738197364991     -3.68817317155732
  H   3.53424560917032      0.46940986567387     -3.56745819244970
  C   6.69894233142075     -0.45489635476056     -2.51987807932931
  H   4.79030197906133     -1.36812002333698     -2.39206581119147
  H   6.95764892399498     -1.05324953274973     -3.39618539290946
  H   7.14056989101303     -0.92261480204371     -1.63867992860951
  H   7.15785189432491      0.52791563164342     -2.64837268191824
