29
Coordinates from ORCA-job 76optt
  C   -3.35394779974564      0.40048809070975      0.14010428734536
  C   -3.25061382146660     -0.89788724915562     -0.29610773045017
  C   -2.15181257404217      1.13499414680494      0.43640529055361
  C   -0.88460747517292      0.47658162638843      0.23085666725424
  C   -0.81459719799973     -0.82363304636014     -0.20935596191261
  C   -2.00163679231964     -1.54738141154770     -0.46377982174777
  H   0.00904979452484      1.03747589017847      0.46388239747106
  N   0.43611105367821     -1.48855813510822     -0.43117403007341
  N   -4.60474309142455      1.05808245169660      0.32907853555673
  C   -2.17867926224200      2.41972968234031      0.98489338664272
  H   -4.14954474722719     -1.45073365705283     -0.53770079373981
  H   -1.95637116727042     -2.54536090942594     -0.87739751856070
  N   -2.17374076175964      3.50469763357473      1.41435424043032
  C   -4.82252210732647      2.18219065507654     -0.56723520561709
  H   -5.69022168912029      2.75332108323307     -0.22836128089021
  H   -5.00986091784614      1.83734268419269     -1.59928333208466
  H   -3.95979061060176      2.84250207991000     -0.56865930662839
  C   -5.76568303296564      0.20674929628670      0.36132343489570
  H   -6.62817509420995      0.79791911393465      0.67763418317797
  H   -5.61364583501978     -0.60511544816625      1.07246581077937
  H   -6.00611820855979     -0.23488117796206     -0.62275407628879
  C   0.61577345115612     -2.67042481349563      0.39151582104953
  H   0.77808342733870     -2.40689163324932      1.45111588727189
  H   1.48416623784790     -3.23382016672165      0.03993895279841
  H   -0.26329712515864     -3.30707595056582      0.33499118575808
  C   1.61200405409566     -0.65519613749608     -0.37754764395268
  H   2.47540415412737     -1.24072370767484     -0.70200058577844
  H   1.82313181500993     -0.27327192523377      0.63608703332706
  H   1.49401532370043      0.19756093488899     -1.04537982658736
