25
Coordinates from ORCA-job 778optt
  C   -1.58635690229314     -0.76388305305404     -0.38411028910230
  C   -1.11169560048651     -1.41399555459179     -1.51549711974876
  C   -0.69413654731302      0.00796302408334      0.34703219089923
  C   0.18748608003711     -1.32267622967730     -1.93558356869588
  C   1.11453066363207     -0.54019692537708     -1.20350816248303
  C   0.65197363398362      0.14086584718541     -0.02681378888968
  H   -2.62340560657457     -0.86798306671307     -0.09644743564051
  F   -1.97804888445532     -2.17577935532246     -2.23549665263591
  H   -1.03907102293077      0.52494060880019      1.23450901841759
  H   0.50266460427972     -1.85083977919616     -2.82658659398526
  C   1.59262035138747      0.92700719764822      0.71324136114831
  C   2.45558063086618     -0.41836437715367     -1.59398856226790
  C   3.38479230447098      0.35318537491776     -0.86619659120912
  C   2.95774163352219      1.04395490075572      0.31366467247893
  C   1.15633343429181      1.60230544067647      1.87502902000611
  H   2.79149700033962     -0.93748881735853     -2.48520332250090
  C   3.90341368344672      1.80579899154827      1.02680722630179
  C   4.73596077795208      0.46993716398402     -1.26066359611893
  C   5.63934662845655      1.22458973471438     -0.54119724241092
  C   5.21892462755291      1.89704443876596      0.61176299349417
  H   3.57944595676379      2.32719261916523      1.91998262001493
  H   5.92330995632432      2.49053041870608      1.18172849531488
  H   5.05361220575996     -0.05499975302640     -2.15528977274349
  H   6.67005343153192      1.29552028739582     -0.86744739428479
  N   0.79637695945429      2.15357086312361      2.82661249464147
