25
Coordinates from ORCA-job 788optt
  C   -1.60263014441770     -0.74575932297111     -0.48254305708018
  C   -1.12668886113725     -1.44014213512999     -1.59726271986238
  C   -0.72331716989354      0.01403306629042      0.25653124110715
  C   0.20225074448362     -1.34538862965343     -1.93851148883163
  C   1.11030476222688     -0.56539824974149     -1.18297192930589
  C   0.64778845019092      0.14102882665971     -0.02233336217973
  H   -2.64057966852995     -0.77669966659939     -0.18090840204108
  H   -1.80498989054218     -2.04271834125496     -2.18836559724156
  F   -1.24182769994795      0.68420485857629      1.30563740162117
  H   0.58500286699559     -1.87155166710288     -2.80521184163125
  C   1.57986643773405      0.90970473566369      0.75535025082572
  C   2.46230440214691     -0.47034226055615     -1.54974393863011
  C   3.38119049301573      0.32497885515760     -0.84663104435763
  C   2.94114430032178      1.04290178830337      0.31566812788530
  C   1.17940640772282      1.46365212838245      2.00067576232796
  H   2.80463053162105     -1.01380533891382     -2.42310058734254
  C   3.91514172309122      1.84145347901177      0.93821945480297
  C   4.72904643920860      0.42776342980860     -1.26672321268930
  C   5.63750663764634      1.21174017058685     -0.59502099211651
  C   5.22564810488701      1.93723625914169      0.52533612129674
  F   3.56520184071126      2.58674489404171      2.00639387457665
  H   5.89718329377511      2.57951223124745      1.07826014088239
  H   5.03087106598665     -0.13315035052919     -2.14356531054209
  H   6.66472565745402      1.27511971561561     -0.93178749101226
  N   0.86375927524896      1.88307152396520      3.02893859953809
