25
Coordinates from ORCA-job 792optt
  C   -1.58855307969128     -0.76558232790697     -0.37521934202461
  C   -1.15354835327905     -1.42941322826305     -1.52816582161227
  C   -0.70876958482125      0.00255436616796      0.36224959949950
  C   0.16079878489190     -1.29466647008219     -1.89545576049911
  C   1.10863908423836     -0.53527066777717     -1.18809283829441
  C   0.64125083595610      0.13862294255642     -0.01494840881794
  H   -2.62130653952725     -0.85560251155026     -0.06340373112958
  H   -1.81619991182366     -2.03712434486162     -2.12935574897852
  H   -1.05125157360805      0.51636252570867      1.25198244139362
  F   0.58580376282992     -1.93165662236133     -3.01572195911489
  C   1.57815012204081      0.92606647278677      0.72256610173680
  C   2.45278908446986     -0.42879461649466     -1.59568517225099
  C   3.36369522380245      0.34836512926312     -0.85396258022153
  C   2.94542090616634      1.04495392053551      0.32442728477110
  C   1.13984442726999      1.60784249518036      1.87990019672755
  H   2.78673868506573     -0.94633830887730     -2.48177906500271
  C   3.88639473805905      1.81227015680427      1.03788501973552
  C   4.71422241763477      0.48644162300528     -1.21867555016922
  C   5.63152175983609      1.23205357405374     -0.52395176896524
  C   5.20150393925645      1.90504776803189      0.62546723163423
  H   3.55879305659183      2.33599383866086      1.92740818911726
  H   5.90569623793433      2.50117021011152      1.19164000216989
  F   5.12594604283545     -0.16486044448625     -2.33560690884688
  H   6.65333464926945      1.28333692672592     -0.87484585132587
  N   0.78205528460159      2.16644759306850      2.82767444046829
