25
Coordinates from ORCA-job 793optt
  C   -1.59374349243067     -0.75662040549626     -0.36461904950286
  C   -1.16699489209567     -1.43503275539441     -1.50836075234007
  C   -0.70455548313027      0.01339982006343      0.35868936912920
  C   0.14539945323372     -1.31672236591016     -1.89628112546686
  C   1.09813024501164     -0.54241713602773     -1.20574922243682
  C   0.64359383481328      0.14183802338446     -0.02610537690222
  H   -2.62496884686042     -0.83774560950918     -0.04561214425429
  H   -1.83274952312588     -2.05121471845499     -2.09723511045533
  H   -1.03614797215896      0.53649957837136      1.24664481759614
  F   0.52859535280516     -1.99180223138286     -3.00489047224848
  C   1.57797744222323      0.92750862767871      0.71182485695402
  C   2.44556886509354     -0.38932949188508     -1.57460944841168
  C   3.38426241457995      0.36628373870165     -0.85694459017781
  C   2.94732108377259      1.04812533116054      0.32250125374721
  C   1.13663419842051      1.60547937892721      1.87040814506875
  F   2.89755116542050     -1.00489878498672     -2.69631738149310
  C   3.89033770892263      1.80343957382037      1.03805306915948
  C   4.73324721272278      0.47234266149434     -1.25935461991379
  C   5.63227310612040      1.22475990074962     -0.52747111274581
  C   5.21018141468507      1.89228755267950      0.62393521411435
  H   3.56505043619798      2.32275314891347      1.93152131336781
  H   5.91379268180316      2.48244548687886      1.19811106723012
  H   5.04807276797806     -0.04971264108442     -2.15260597284161
  H   6.66442520313653      1.29470994451490     -0.84874109548366
  N   0.77968562286110      2.16183337279343      2.81957836830727
