25
Coordinates from ORCA-job 795optt
  C   -1.53537336360880     -0.77249646408439     -0.42259659226953
  C   -1.11163649589333     -1.44359867183489     -1.56673272089374
  C   -0.67699551867908     -0.00028182142741      0.33284245437388
  C   0.21028440501643     -1.32554139947551     -1.94827955054229
  C   1.13655540855786     -0.54922884190323     -1.21683415854382
  C   0.67349833617848      0.13129272182700     -0.04082456789870
  Cl  -3.20974048457701     -0.91618657194184      0.06623807796216
  H   -1.81128664465927     -2.04073401804150     -2.13532858252022
  H   -1.04024972505010      0.50777111902803      1.21683743713479
  H   0.55904510071853     -1.84062786638536     -2.83624255204712
  C   1.60487404168803      0.91514236615246      0.70093529847242
  C   2.48299657384708     -0.42513107387035     -1.60241265133904
  C   3.40693724700903      0.34870893292146     -0.87344972995519
  C   2.97354738351471      1.03844608766508      0.30439829113467
  C   1.16384550619575      1.58954630023723      1.86273441676946
  H   2.82194089056976     -0.94384650431469     -2.49285968167168
  C   3.91020781693795      1.80578932917636      1.01943401838844
  C   4.75984185503312      0.47210741096684     -1.26333270442560
  C   5.65548125386658      1.23302048122291     -0.54128036797216
  C   5.22770147697055      1.90474434387238      0.60883148479062
  H   3.57992287928635      2.32672239219688      1.91051309123818
  H   5.92611449825714      2.50370095350954      1.18022791759511
  H   5.08408237306850     -0.05178563831900     -2.15610918536417
  H   6.68691460723349      1.30971828805249     -0.86399390505879
  N   0.80444057851821      2.14096814476949      2.81363446264238
