25
Coordinates from ORCA-job 803optt
  C   -1.59256813351633     -0.86236292236196     -0.46635000054272
  C   -1.11497423094468     -1.46512300730314     -1.62765521855140
  C   -0.74585880361337     -0.09543083804347      0.31586239136494
  C   0.20450879945241     -1.29942287198571     -1.97741543692511
  C   1.08759563154338     -0.52290843402655     -1.19537800431767
  C   0.61184984004272      0.13368150687969     -0.00351791693539
  H   -2.62007425507427     -0.98594425993056     -0.15439372169260
  H   -1.77957952752276     -2.06271712499884     -2.23875367458610
  Cl  -1.46785489642410      0.56504915429791      1.76109345154802
  H   0.60052644196524     -1.76875945251166     -2.87016054038661
  C   1.54803860736856      0.93495647420313      0.72504550616642
  C   2.43317614328569     -0.40058307554967     -1.58481479585089
  C   3.36223000097487      0.34896624319374     -0.85235896301074
  C   2.92588010991878      1.04185668168119      0.32585194713607
  C   1.21328546612711      1.71041396545826      1.86611393049209
  H   2.75170668541731     -0.91353084198036     -2.48116756966548
  C   3.86102752341520      1.80710826773616      1.04752558903973
  C   4.72598715788446      0.47501046749465     -1.20661647739664
  C   5.62716904519673      1.22685889815651     -0.48685750807778
  C   5.18220752267105      1.89890190396143      0.65123747985932
  H   3.53143172865450      2.33341360317119      1.93280647533008
  H   5.87842827534412      2.49514660201289      1.22709048924298
  Cl  5.31606461589819     -0.35787092211295     -2.62833865524099
  H   6.65743814790276      1.28588011468003     -0.80987644262908
  N   1.08530810403237      2.39560986787808      2.78735766562957
