25
Coordinates from ORCA-job 804optt
  C   -1.60925914824553     -0.87058898107312     -0.47697969278628
  C   -1.12952627868078     -1.48122063107490     -1.63309801732751
  C   -0.76310472057822     -0.09972260288454      0.30251988427254
  C   0.19058889610530     -1.31740604056653     -1.98231264501046
  C   1.07333506397388     -0.53639081895659     -1.20385785257120
  C   0.59624630669767      0.12548402628409     -0.01257825029321
  H   -2.63786276399688     -0.99017372785526     -0.16720324373213
  H   -1.79318099002129     -2.08251262476370     -2.24165526117966
  Cl  -1.48871994573604      0.57518888801613      1.73931642442989
  H   0.58690876864981     -1.79188074158676     -2.87242146623624
  C   1.53004233568625      0.92643139844344      0.71996356907509
  C   2.41843539548123     -0.40872146800798     -1.58902946487569
  C   3.34467904064958      0.34488363673693     -0.85658925846157
  C   2.90760562267111      1.03255450927715      0.31908290025732
  C   1.19996839250259      1.69711105094274      1.86521653714450
  H   2.74847984877323     -0.92119986250096     -2.48568202731976
  C   3.85477560644914      1.79116063474925      1.03122074905175
  C   4.69867975583262      0.44625896539980     -1.25182973148330
  C   5.58005259440274      1.19886594031312     -0.51537907789887
  C   5.17683916719272      1.88022105106215      0.62989532576636
  H   3.53996554588540      2.32085649341011      1.92053233724460
  H   5.89020381536187      2.46702492258264      1.19147570719902
  H   5.03284968129408     -0.07378933982437     -2.14035241377800
  Cl  7.25157078127055      1.30687437621303     -1.02460646365504
  N   1.08337722837892      2.37888094566416      2.79069143216786
