25
Coordinates from ORCA-job 806optt
  C   -1.61790673705691     -0.64399210848574     -0.58495940211178
  C   -1.11871901940052     -1.42657381062302     -1.62529727419977
  C   -0.75471664025196      0.13425874187439      0.16823816187016
  C   0.22473338700406     -1.38995225601512     -1.91750144725812
  C   1.12289840850008     -0.60596308114821     -1.15911611703097
  C   0.64197267874061      0.14826714255638     -0.03318980663515
  H   -2.67645488878424     -0.61070011750392     -0.36878105200024
  H   -1.79467067130727     -2.03640494251324     -2.21171392856915
  Cl  -1.50836747074399      1.18915491305133      1.33444454021057
  H   0.62461332806058     -1.96532189353415     -2.74440496732927
  C   1.60308636470308      0.84169039578533      0.78102053669084
  C   2.48701689917038     -0.55797952307300     -1.48390254160718
  C   3.39242525790728      0.28837275090278     -0.82596807930687
  C   2.94461809473431      1.05113343280140      0.30810487049685
  C   1.31957922090725      1.04078759177980      2.15656568388156
  H   2.84320338172674     -1.15049728195204     -2.31924613063007
  C   3.88414690754730      1.94923864308128      0.85802970777534
  C   4.73396808727555      0.38904985169770     -1.25770261106016
  C   5.62756702087888      1.22852605724819     -0.63445082669279
  C   5.19647625164792      2.02897002632588      0.42247404903816
  Cl  3.42138085323968      3.10624370580728      2.07828353985579
  H   5.86311210308571      2.73575340048281      0.89621547224596
  H   5.04355397713089     -0.21649266662228     -2.10166495921821
  H   6.65439436552815      1.29116980406995     -0.97268033306915
  N   1.12503883975626      1.09949122400624      3.29353291465365
