25
Coordinates from ORCA-job 810optt
  C   -1.59627185665849     -0.75682048347692     -0.37035179769934
  C   -1.13343204791855     -1.40982153478602     -1.51058001127901
  C   -0.70787599743168      0.00912490549572      0.36381607750302
  C   0.17530240976906     -1.31336747244630     -1.92015252001212
  C   1.09999304185599     -0.53648562090989     -1.18471624042656
  C   0.64064775023517      0.14353316809110     -0.00917335730669
  H   -2.63124117418977     -0.85246560371575     -0.07330482335113
  Cl  -2.25351386377552     -2.37853730475131     -2.44387005336229
  H   -1.05519148310664      0.52241137624222      1.25241371596381
  H   0.50641267296774     -1.83269744439671     -2.81031315131506
  C   1.57634867469231      0.92804409854558      0.72970105133302
  C   2.44536089421655     -0.41700026260384     -1.57595116169209
  C   3.36920074835860      0.35455632164922     -0.84914410827546
  C   2.94129784252387      1.04828090214939      0.33022374205251
  C   1.13906876119286      1.60480536047503      1.89188009687728
  H   2.78106851977899     -0.93656439878071     -2.46637676162352
  C   3.88176838010364      1.81437685430209      1.04030155895917
  C   4.72113853383537      0.46998166972532     -1.24726450350090
  C   5.59940623837278      1.23271312137878     -0.51504893889500
  C   5.20060490823252      1.91407860668303      0.63275651725720
  H   3.55884597915533      2.33926536912696      1.93131989550784
  H   5.91456479645623      2.50653319624579      1.18755082627401
  H   5.05995932324647     -0.04798717318812     -2.13528971318126
  Cl  7.26678120518612      1.35432036142423     -1.03477106018227
  N   0.78270574290099      2.15790198752115      2.84266472037489
