25
Coordinates from ORCA-job 812optt
  C   -1.59004518970409     -0.76162937968718     -0.27925046183094
  C   -1.22435506584553     -1.33630715334389     -1.49096470636809
  C   -0.66117488252685     -0.03365383578361      0.43068115440256
  C   0.07345787895894     -1.22071339973837     -1.95367930475410
  C   1.10547832203128     -0.57901571143527     -1.21295969630064
  C   0.66822203861551      0.09695711653770     -0.01026453126254
  H   -2.60543688694518     -0.86003601605970      0.08246000485361
  H   -1.94958306694367     -1.85161321377649     -2.10488833920644
  H   -0.94421038880270      0.45716462724366      1.35286721842151
  Cl  0.29327707625860     -1.81989170754392     -3.58583786561619
  C   1.59579413249801      0.88937237484126      0.72389444280210
  C   2.49161400941706     -0.52126632529286     -1.51187848140552
  C   3.40889281724559      0.31805585388609     -0.82091655261902
  C   2.94739232720172      1.05549833306699      0.31180448084635
  C   1.15741263416038      1.55286517420156      1.89385326402512
  Cl  3.20439418390735     -1.60835025327577     -2.67721210317883
  C   3.84661751022278      1.89435522297155      0.99673849953109
  C   4.76572037401708      0.45719489920934     -1.18999806017145
  C   5.62325141428191      1.28882708934883     -0.49915040428315
  C   5.16301226960695      2.01500593720308      0.60161743322783
  H   3.48274942268884      2.44513362953700      1.85560575906039
  H   5.83396747875123      2.66720801182724      1.14689238795474
  H   5.13424871076277     -0.09825141868574     -2.03922070894078
  H   6.65546982873744      1.37490012944784     -0.81587470171760
  N   0.80680305140447      2.09642001530067      2.85202127253002
