17
Coordinates from ORCA-job 81optt
  C   -3.45496133607460      0.25807673137753     -0.10973606954433
  C   -3.45699035212228     -1.05505030376403     -0.50146320162118
  C   -2.23011349587261      0.96063143515397      0.10699726792156
  C   -1.00062500384959      0.22874675941654     -0.07873874131638
  C   -1.03127484286716     -1.08570948241534     -0.46312669340129
  C   -2.24047702188724     -1.77494752255570     -0.69168618736093
  H   -0.05692284692292      0.73243022359736      0.08728931290168
  H   -0.09166156439085     -1.61063415275533     -0.60397574328451
  H   -4.39644092099497      0.77214029107435      0.03939313503289
  C   -2.23095020654978      2.30432448115965      0.49987855923568
  S   -5.00907575816034     -1.85098682216018     -0.80749136481632
  H   -2.25395854748138     -2.79807705175495     -1.04047230408041
  N   -2.22311531020915      3.42200621605318      0.82851821696155
  C   -4.98751758523300     -3.11548489875319      0.49203391422815
  H   -4.11976058798845     -3.76330431595095      0.37940839931000
  H   -5.89730668763624     -3.70693051142757      0.38871007268691
  H   -4.96504793175929     -2.64540107629528      1.47444142714691
