27
Coordinates from ORCA-job 820optt
  C   -1.59505667535912     -0.79943584530478     -0.42734777473280
  C   -1.13148438160542     -1.45501511823523     -1.57790953791167
  C   -0.73784283373011     -0.02958515664248      0.32769163086620
  C   0.18231363222348     -1.32433325079488     -1.94318199492017
  C   1.09450943843621     -0.54003310677314     -1.19137459105685
  C   0.62405773216625      0.13343302371043     -0.01778493080155
  H   -2.63265165266299     -0.89671144149085     -0.12663193845785
  H   -1.80819343687903     -2.06079778673526     -2.17170250955675
  O   -1.18484953744019      0.61173625682019      1.45640328494751
  O   0.69010688117471     -1.94993764501996     -3.06533962787375
  C   1.55537413686672      0.92533559586853      0.72894465395740
  C   2.43695254669047     -0.42471961760725     -1.58739375304000
  C   3.36127985564016      0.34694183669468     -0.85702706420746
  C   2.93014093021191      1.03823335449651      0.31930702618120
  C   1.20842484642868      1.64446588389616      1.89985270284930
  H   2.76698410131791     -0.94394856403592     -2.47635731814362
  C   3.87710837575306      1.80219267660684      1.02656918013695
  C   4.71226089993045      0.46051108998003     -1.25348094035274
  C   5.61729668446939      1.21795092824093     -0.53758081179536
  C   5.19519287582629      1.89298758980282      0.61022655530153
  H   3.55844152007476      2.32860977597934      1.91733309026509
  H   5.89708120499242      2.49035259466245      1.17947459119308
  H   5.02655587076825     -0.06862518557825     -2.14665331990054
  H   6.64818058500140      1.28777909770605     -0.86432792629616
  N   1.05832083043716      2.27307812833839      2.85890841160035
  H   -2.11965990480969      0.42100296599006      1.56563969408841
  H   -0.02401452592314     -2.44342808057538     -3.47623678233973
