27
Coordinates from ORCA-job 821optt
  C   -1.59547823581300     -0.81527128564823     -0.44213115969922
  C   -1.15224283603713     -1.40369518768056     -1.62456476706541
  C   -0.72277264758641     -0.06102016381816      0.32978215498211
  C   0.16084632865349     -1.25370485804005     -2.01391735646371
  C   1.07978601774292     -0.51163593886453     -1.22467470273019
  C   0.62708298235937      0.13670055429454     -0.02326335676069
  H   -2.62495811327166     -0.92875569800901     -0.11845321188910
  H   -1.84347608600043     -1.96646943879367     -2.23971583671158
  O   -1.16278748193465      0.52434066746695      1.48732402652569
  H   0.47433352258661     -1.66994371051616     -2.96293296670704
  C   1.55151565604631      0.92678242551121      0.72932832713615
  C   2.43238941710216     -0.40376927226370     -1.58217272751110
  C   3.36408860367251      0.36443131641068     -0.85689478661485
  C   2.91921344824889      1.05592406294184      0.31292312867094
  C   1.20111467570518      1.63535961171259      1.90612156192618
  O   2.90931518692636     -1.06418380115758     -2.69953094307268
  C   3.86290594464237      1.82746549099874      1.01691374021162
  C   4.71475947378899      0.46587763396510     -1.25321292554855
  C   5.61229889345329      1.23145077053263     -0.53368377033566
  C   5.18204241397643      1.91627482866369      0.60406410949041
  H   3.54004270220870      2.35652763074367      1.90431488238084
  H   5.87995590643972      2.51975301422500      1.17194830416954
  H   5.02974444687916     -0.07062189143139     -2.13761034083752
  H   6.64554513575922      1.29876088023365     -0.85289672445425
  N   1.04456868227494      2.25762696655268      2.86786874750915
  H   -2.09862896967584      0.33428125520632      1.59031658437223
  H   2.39072493185235     -1.86605586323627     -2.81640999097327
