27
Coordinates from ORCA-job 822optt
  C   -1.58850107116897     -0.83273893383195     -0.44327864558648
  C   -1.13022655331784     -1.44256755018266     -1.61472101829442
  C   -0.72466822998384     -0.07220346877173      0.32617366086925
  C   0.18088683623102     -1.28975411677266     -1.99250231037359
  C   1.08645112053587     -0.52094959586062     -1.21967799892325
  C   0.62815969769022      0.12484534179931     -0.02535256144965
  H   -2.61943908159803     -0.94811817940917     -0.12499408075228
  H   -1.81042062279466     -2.03411956914634     -2.21529618579013
  O   -1.16905367994934      0.52246536889845      1.47624491306033
  H   0.55108603835351     -1.76190821944366     -2.89513078649002
  C   1.55364616196883      0.92537143028940      0.72328850157274
  C   2.42860142543985     -0.37974988395249     -1.61566286589277
  C   3.35903179201308      0.37149971008609     -0.86443468831444
  C   2.92611214498146      1.05411337432241      0.31307130228912
  C   1.19493508258449      1.64412590571372      1.89068205229349
  H   2.70498065192641     -0.83813380464973     -2.55891157486739
  C   3.85904196963163      1.83430249112413      1.02673387048156
  C   4.72336683431581      0.47277931260423     -1.22848767371971
  C   5.61768400818753      1.23779116938920     -0.51504106727439
  C   5.17217843176677      1.92951135772408      0.61514880219253
  H   3.52899032533432      2.36251564075420      1.91115841400403
  H   5.86950165330207      2.53663935936966      1.17927955471408
  O   5.19714208012257     -0.20277175862905     -2.32903938099066
  H   6.64920478123172      1.27869652916445     -0.83987396234197
  N   1.02407481690767      2.27432360726341      2.84510227279273
  H   -2.10353380990727      0.32653867157920      1.58166572170188
  H   4.55310719619503     -0.87669418943188     -2.56567426491056
