27
Coordinates from ORCA-job 824optt
  C   -1.60016562322424     -0.82220600053507     -0.45811877400374
  C   -1.13777783000417     -1.47434178563355     -1.60622639747498
  C   -0.73273656587620     -0.05030126027466      0.29724045372234
  C   0.17664968376811     -1.34746438976162     -1.97834070428831
  C   1.08597890395155     -0.56212659362872     -1.22149740328376
  C   0.62492735851231      0.11588257769577     -0.04361742921877
  H   -2.63599651382290     -0.91297046389418     -0.14773749774281
  H   -1.82014503920503     -2.07651893627768     -2.19399232546501
  O   -1.18301097014524      0.58617960092517      1.42375317092000
  H   0.54948225244024     -1.84826479621296     -2.86419408005544
  C   1.55929569997294      0.90972915186288      0.70500687463694
  C   2.42700844693120     -0.44132483856925     -1.60847734198854
  C   3.35908494155762      0.32959817573996     -0.88110164926087
  C   2.92698695327184      1.02281029717794      0.29750657883689
  C   1.21135967940393      1.62911605878997      1.87666681085824
  H   2.76043053661301     -0.96130457052298     -2.50020918044924
  C   3.87075598188572      1.79017916331789      1.00889228725132
  C   4.70437512937046      0.44342956326369     -1.27327987956710
  C   5.61462441504087      1.20299005045786     -0.55733922673137
  C   5.18115701237290      1.87385574300118      0.58581437157230
  H   3.57459897240377      2.32538395115595      1.90139740809137
  O   6.04849102116494      2.64420715253763      1.33167571374724
  H   5.02660348534009     -0.08343785334661     -2.16464588268244
  H   6.64941381127957      1.27877144685328     -0.87626056994454
  N   1.05507435082710      2.25620367209409      2.83516418124323
  H   -2.11790324174950      0.39335186702199      1.53050073635441
  H   6.91504714791905      2.60255301676201      0.91905975492262
