27
Coordinates from ORCA-job 831optt
  C   -1.54027380889534     -0.83994577148013     -0.38571953995902
  C   -1.09105840402395     -1.49349981333436     -1.53888932601829
  C   -0.65955440993675     -0.06606935156403      0.35126193421536
  C   0.22734269327655     -1.35744884688940     -1.93362778489316
  C   1.15011184902146     -0.57876353369983     -1.20953418805103
  C   0.68643088251213      0.08655650511712     -0.02754326451222
  N   -2.87566287470096     -1.01729287544151      0.04861904384863
  H   -1.77788984154080     -2.10980800872021     -2.10857228971848
  H   -1.01112870147810      0.43746581026071      1.24590689001197
  H   0.57395270991737     -1.86308155823093     -2.82860559355327
  C   1.61142526724675      0.88376241483799      0.70857632106345
  C   2.49823907852248     -0.43212976751046     -1.60509579947932
  C   3.41349884533778      0.34959352837311     -0.88028901000449
  C   2.97728808579759      1.02994630936045      0.30480236747905
  C   1.16180752536120      1.55091250212459      1.86993829667769
  H   2.83788149349237     -0.94142156758371     -2.50113449569875
  C   3.90615450796017      1.80815646950360      1.01546376567257
  C   4.76468644516212      0.49601779962325     -1.27620366985716
  C   5.65259956315745      1.26822030455415     -0.55611064173807
  C   5.22195900901243      1.92977935079292      0.59841503909040
  H   3.57309083720182      2.32105091568988      1.91044550602503
  H   5.91438903866452      2.53739632614840      1.16815252164406
  H   5.09242824804558     -0.01976809030826     -2.17265128797274
  H   6.68125911532555      1.36132423576479     -0.88432384121848
  N   0.78596465569497      2.09618274074376      2.81925867261155
  H   -3.52036977927825     -1.12293151416541     -0.72176949320243
  H   -3.18377203085621     -0.26680451396650      0.65072986753720
