29
Coordinates from ORCA-job 835optt
  C   -1.55412589434875     -0.83443226467872     -0.46698705974060
  C   -1.06479626421774     -1.51507574499546     -1.58007577950615
  C   -0.71540381025634     -0.03881699207285      0.31412886742221
  C   0.25940042849924     -1.38077370856048     -1.92958001384234
  C   1.13545421275202     -0.56490078842404     -1.18797425994974
  C   0.65259976863013      0.12437866017505     -0.02472234755119
  N   -2.90913875184552     -0.96266675611923     -0.06531062821560
  H   -1.73539600119682     -2.13628342968838     -2.16438734821641
  N   -1.35674135429432      0.60366279399554      1.39956699881507
  H   0.65090709250841     -1.89965189540729     -2.79678938866729
  C   1.60406358659063      0.92322308027290      0.70697363439528
  C   2.48630617313221     -0.43420901555509     -1.58356389503721
  C   3.41024933145236      0.34865225987196     -0.88026184064444
  C   2.97749616474191      1.04638246353558      0.29267675705904
  C   1.27138483126746      1.63107461666659      1.87939610643250
  H   2.81616726937401     -0.96889552004623     -2.46807705243671
  C   3.92053342146837      1.82191634223228      0.99013013222802
  C   4.76135938349372      0.47367078626918     -1.28449234739541
  C   5.66026587581040      1.24421968014950     -0.57781054975632
  C   5.23715084415425      1.92313744490584      0.56870264811059
  H   3.60436840592014      2.35253644874444      1.87993007377098
  H   5.93551488105546      2.53039432087824      1.13148840715986
  H   5.07797494739988     -0.05868010386163     -2.17515462059775
  H   6.68906092253107      1.32223476297099     -0.90945048336955
  N   1.04880737372859      2.23141536492698      2.84679393191184
  H   -1.91787351931687     -0.05175088838262      1.93030996678699
  H   -0.74989603725597      1.11596597566710      2.01990077575052
  H   -3.48075556349802     -1.32976201932120     -0.81301166072838
  H   -3.27781771827992     -0.06793587414901      0.24014097581217
