29
Coordinates from ORCA-job 839optt
  C   -1.59306010446672     -0.79183609322436     -0.48377678210767
  C   -1.11398485392313     -1.44039237440627     -1.62066885391671
  C   -0.76396725418457      0.00693051553140      0.29877578824655
  C   0.20125301955971     -1.29265531811007     -1.98494523016502
  C   1.08466077857896     -0.50346504831846     -1.21114139704081
  C   0.61165687821776      0.15624607703851     -0.03061712583195
  H   -2.63688164392797     -0.88304352553931     -0.20344180997080
  H   -1.78406252806059     -2.05183880469209     -2.21359858679677
  N   -1.36379247734655      0.70287962276919      1.35656837584717
  H   0.59063639405085     -1.78077907612183     -2.87067375008633
  C   1.56920131583037      0.93036099999352      0.72288861954921
  C   2.43058739140341     -0.36485817850799     -1.61128202374272
  C   3.36077930719184      0.40457656487815     -0.88769661451021
  C   2.93488716170634      1.08009804043526      0.29504433241606
  C   1.25957873923307      1.54136144422780      1.95475672323913
  H   2.71630061204791     -0.83240669092964     -2.54473511173530
  C   3.86528313277400      1.86711845714952      1.00389538768909
  C   4.72144694617395      0.51619582288197     -1.28295231471178
  C   5.60622615410883      1.29674447356739     -0.56394298731468
  C   5.17177334286207      1.97921972492873      0.57576146952348
  H   3.54320149472608      2.38816860801378      1.89596724712499
  H   5.87093796569177      2.59111998970688      1.13266418233946
  N   5.14870129758926     -0.15964124309930     -2.44827048033051
  H   6.63938055497921      1.36911931495241     -0.88759410279394
  N   1.05712523889959      2.04002776677176      2.98240844390294
  H   -2.22250864537197      0.27809748205399      1.66828497932751
  H   -0.77807901343492      0.97769826790759      2.12860492607993
  H   4.71377934585943     -1.06807244066128     -2.54528430526274
  H   6.15340944923191     -0.26074437919726     -2.47275899896754
