29
Coordinates from ORCA-job 841optt
  C   -1.60998420722044     -0.77011877663551     -0.51810243602159
  C   -1.13369909576877     -1.46113897989054     -1.63169586878440
  C   -0.76706483046431      0.02162272467747      0.25798264540015
  C   0.18915290738899     -1.36041798295868     -1.98168120007171
  C   1.08537486420023     -0.57238282695521     -1.21732527239532
  C   0.61411163993963      0.12555444892842     -0.05507588344530
  H   -2.65953449203487     -0.82484827897952     -0.25006031870353
  H   -1.81301504071235     -2.06896424040994     -2.21799260745847
  N   -1.36058174700676      0.75499116156405      1.29632917581958
  H   0.57639069203607     -1.88132214295023     -2.84949922462243
  C   1.58460942139377      0.88328051631292      0.70293073848307
  C   2.43427600041265     -0.47323744617951     -1.60039194258798
  C   3.37583662079323      0.29263984474282     -0.88595265530564
  C   2.95604160612553      0.98241770863526      0.29486894156834
  C   1.27975215270705      1.53388683555280      1.91568493950034
  H   2.75935925697435     -1.00731804021415     -2.48696892614135
  C   3.91137155625609      1.73223977479921      1.00595099625676
  C   4.72286403295441      0.40252961007617     -1.28144244058019
  C   5.64083350964048      1.14690658853922     -0.56451879613852
  C   5.23033534489555      1.81986003180868      0.59082379639180
  H   3.60734944617175      2.25713620837633      1.90491742797590
  N   6.17512081594516      2.54272065166735      1.35879760036899
  H   5.03746608854380     -0.12176556785275     -2.17741051394195
  H   6.67620301821972      1.20513207879431     -0.88191418023802
  N   1.09346733487194      2.07244281990224      2.92612811820171
  H   -2.23013718008253      0.35273931632538      1.60861204340262
  H   -0.77459132942572      1.02115145766206      2.07128011865174
  H   6.88171287071795      2.98146558400037      0.78547424126561
  H   5.73542874252729      3.23640692066092      1.94726148314974
