29
Coordinates from ORCA-job 842optt
  C   -1.59773964188864     -0.69313417796686     -0.56232055324363
  C   -1.10921775276054     -1.42958108170150     -1.64195897008376
  C   -0.75167981170679      0.08441859704658      0.22367546845427
  C   0.22726838530598     -1.38741489530847     -1.95170182719673
  C   1.12619065580325     -0.62374343087632     -1.16827967357317
  C   0.64578707633686      0.09934087484033     -0.03194913434753
  H   -2.65918233147518     -0.69374880485234     -0.33905754809463
  H   -1.79278998400132     -2.02093243025460     -2.24008622847998
  N   -1.34157185257550      0.91414683157640      1.18790779664420
  H   0.61977447852280     -1.93422251984868     -2.80096888240753
  C   1.61764395499782      0.80543080505970      0.77600566353057
  C   2.49171750687709     -0.56423914608534     -1.49976158401739
  C   3.40494909601104      0.27117190098710     -0.83176735730727
  C   2.97317077239958      1.01336643380408      0.31172233434488
  C   1.32352348545711      1.04769982688276      2.12520511873212
  H   2.84152728985465     -1.13379766536056     -2.35386498991525
  C   3.89794650170145      1.91036805491099      0.91043209906791
  C   4.74173419308773      0.38516537193823     -1.28445413825941
  C   5.62885599110911      1.21507155354192     -0.64551076769714
  C   5.20798435609081      1.97809367238195      0.44404030357381
  N   3.51488648867862      2.82270731612809      1.90415070174886
  H   5.89621549173781      2.66379593799756      0.92639939509001
  H   5.04531969071134     -0.19640980094316     -2.14699965043176
  H   6.65336739716232      1.29322261887586     -0.99048512942804
  N   1.09031912874579      1.22050489776389      3.25204946316548
  H   -2.28182457593510      0.63169432698472      1.41669638480984
  H   -0.80594995673272      1.10637236514418      2.02073869166280
  H   2.80206361185429      2.52546440243435      2.55299663904223
  H   4.30511035463023      3.21937816489907      2.38835637461623
