29
Coordinates from ORCA-job 844optt
  C   -1.60116956737425     -0.73724270716868     -0.39950996795091
  C   -1.16383797761629     -1.38089960118335     -1.56471773054392
  C   -0.71452250262729      0.01948218388341      0.34757270179928
  C   0.15124367953964     -1.24696536494009     -1.96011186979870
  C   1.08076668519363     -0.47779668541823     -1.22145205895213
  C   0.62971431900283      0.17225532804670     -0.02590215746801
  H   -2.63701589634329     -0.82952965059735     -0.09236625254546
  N   -2.08652400883728     -2.11725848263415     -2.35040555306598
  H   -1.06030304460029      0.51117968483325      1.24958756855039
  H   0.49154736963705     -1.74013377899513     -2.86607434862547
  C   1.57100788074729      0.94237929612731      0.72778927316061
  C   2.42192289319657     -0.34101283272703     -1.62025795495464
  C   3.35279310765686      0.41385999779894     -0.88552844944354
  C   2.93443546582464      1.07658595863869      0.31491747661340
  C   1.14499612081575      1.58299746717208      1.91080358928545
  H   2.75071849423492     -0.83733406173953     -2.52750973854039
  C   3.88494054362685      1.82309639704052      1.02831030160034
  C   4.70332820959156      0.54019427187736     -1.28750994873718
  C   5.61479290017983      1.28047447744093     -0.56318425458616
  C   5.19927274470783      1.93078418860001      0.60624703871238
  H   3.57275159981135      2.32693031768046      1.93584997366291
  H   5.90973685510483      2.52316236396502      1.17204021054773
  H   5.02136288225176      0.03938235673206     -2.19735595536099
  N   6.94992433254681      1.43309749616392     -1.01622419256428
  N   0.79622985888412      2.10814429847589      2.88229397376712
  H   -2.81163051075304     -2.53887621712822     -1.78709066253850
  H   -1.63050689771186     -2.83190015377885     -2.90012091432576
  H   7.24671006093816      0.65632693282625     -1.59018911864567
  H   7.59839440237125      1.55135651900781     -0.25047097905193
