29
Coordinates from ORCA-job 849optt
  C   -1.58608615354517     -0.56516657461820     -0.64836866886139
  C   -1.19425942667769     -0.93497153659095     -1.94188076449596
  C   -0.66614223478842     -0.01546353484834      0.22388272678199
  C   0.11593928767865     -0.73585588404524     -2.34333294992528
  C   1.08059379277626     -0.17532456139556     -1.47786915867884
  C   0.67559606644085      0.19258863838032     -0.15112009978790
  H   -2.61434231413982     -0.71215365627161     -0.34236099217722
  S   -2.36858467608410     -1.66412957288697     -3.05210769238175
  H   -0.97495248081635      0.26859828267447      1.22293283953430
  H   0.41468449228690     -1.01384482724442     -3.34791968584295
  C   1.64836247649368      0.75407770550781      0.72368918090451
  C   2.41464781401496      0.03014422787664     -1.87605257986446
  C   3.37933134225292      0.58631254456697     -1.01429663504571
  C   3.00451948135377      0.96019782617550      0.31658908355867
  C   1.26355539732273      1.11714188520606      2.03548870587939
  H   2.70944268436115     -0.24917816904449     -2.88191954279040
  C   3.98149982405667      1.51246992214949      1.16309865973308
  C   4.71924798121909      0.79234582850887     -1.41560914115827
  C   5.65541356770219      1.33741400471769     -0.56201563616644
  C   5.28442883462079      1.70019158195676      0.73720294664778
  H   3.69454654030865      1.79397474284517      2.16957348341212
  H   6.01538619600929      2.12884332194713      1.41172351714018
  H   4.99977280451746      0.50898688734806     -2.42435920463883
  H   6.67521325363572      1.48425367555101     -0.89721384146145
  N   0.95048825120017      1.41227352673191      3.10892552135177
  C   -2.13673470232135     -3.41417187869378     -2.64303408480197
  H   -2.81713879052214     -3.99224802582162     -3.26837210781099
  H   -2.36890471170291     -3.59018981080515     -1.59399675103851
  H   -1.11051459765396     -3.71531656987749     -2.84661712801544
