29
Coordinates from ORCA-job 850optt
  C   -1.36626697495189     -0.69800377389413     -0.70363842739453
  C   -0.81566642379728     -1.38994343658840     -1.78623167541759
  C   -0.57049774835581      0.08795290147731      0.10406692572307
  C   0.53830243027194     -1.29018676654961     -2.05583942720149
  C   1.39543702686768     -0.48855609668242     -1.24454920318109
  C   0.80933572815134      0.21325400941775     -0.13844857709965
  H   -2.42700441355508     -0.78383771675552     -0.50232693943901
  H   -1.46367978108901     -1.99820593759034     -2.40020652902696
  H   -1.00164043478098      0.62177560919780      0.94199766570625
  S   1.30749288674094     -2.13933715659485     -3.40812512730318
  C   1.65602685778821      1.01906528458911      0.68226259672768
  C   2.77535240480118     -0.36128493936236     -1.48353005451299
  C   3.61268391463078      0.43574126666795     -0.67416747288531
  C   3.05700428878455      1.14636850214917      0.43499766046224
  C   1.09052811290438      1.71338850714336      1.77615836299157
  H   3.23159937957082     -0.88399998801670     -2.31468425697832
  C   3.90983355124210      1.93494617147041      1.22878634829621
  C   4.99741766881127      0.55828398714066     -0.92350941552007
  C   5.81058129377406      1.33955349500984     -0.12814435518419
  C   5.26222617111879      2.03286928155340      0.95606031670559
  H   3.48522502092288      2.47203725617369      2.06886482508592
  H   5.89518973249887      2.64771860699834      1.58425171164179
  H   5.41471988676754      0.01752170304131     -1.76603865655500
  H   6.86977843250865      1.41530987865763     -0.34311028847500
  N   0.63085206856241      2.28230068119356      2.67255008230967
  C   -0.07449059677806     -2.99483367879188     -4.17081671163148
  H   0.34137975590760     -3.53211770300999     -5.02163875914522
  H   -0.82945683804283     -2.29426517230718     -4.52647766259475
  H   -0.52949340127511     -3.71015477573799     -3.48629295610410
