33
Coordinates from ORCA-job 856optt
  C   -1.55973749636339     -1.07702315161190     -0.24748787265427
  C   -1.13201379108093     -1.78869923643644     -1.36790259361876
  C   -0.69593543269783     -0.22780819178500      0.43681591980172
  C   0.15658856873864     -1.63770893415759     -1.81968134515101
  C   1.07654365379060     -0.81089021938341     -1.13855416531320
  C   0.67330455177779     -0.12881444561761      0.05991603683056
  H   -2.58433158528917     -1.18414322268887      0.07610634402594
  H   -1.82550505035186     -2.44053171838786     -1.88540490759909
  S   -1.33495022989980      0.78881192143570      1.75034666707770
  H   0.49566243945286     -2.15401571897428     -2.71016476265861
  C   1.68693788777478      0.60092672489823      0.76180879437282
  C   2.38224515050684     -0.65155634844658     -1.64227857219161
  C   3.34139725286613      0.16192604140287     -1.02068412476923
  C   3.00370490327628      0.79395843202805      0.21742463836240
  C   1.51667028303890      1.07066930667457      2.08706270043739
  H   2.62783296711371     -1.17871576450299     -2.55528067676841
  C   3.97803258001238      1.56984873936849      0.87291436759798
  C   4.64741500145851      0.36872198306223     -1.55540238328078
  C   5.57531007524895      1.14513032479405     -0.88597594670370
  C   5.23509758551975      1.74057626967693      0.33190610551299
  H   3.72735199875837      2.03823546144974      1.81540803816106
  H   5.96924740524924      2.34404487900468      0.85130378967689
  S   4.99877438174784     -0.42257575757448     -3.10154704079445
  H   6.56612075555225      1.30307610078698     -1.28630219646969
  N   1.49608228747541      1.44953203904059      3.17961234641473
  C   -3.08630020113951      0.86881351775679      1.33099840916751
  H   -3.49312875886175      1.67338204995687      1.94257341508110
  H   -3.61890799353116     -0.05086502117117      1.56982268275167
  H   -3.22104673309553      1.10951316325641      0.27703176406887
  C   6.70739500278081      0.04250532748374     -3.39745871634291
  H   6.98563793719630     -0.43030077393635     -4.33794522676293
  H   7.36199598796569     -0.32391954093699     -2.60725183539598
  H   6.81729861500876      1.12201576353455     -3.49602965286671
