33
Coordinates from ORCA-job 858optt
  C   -1.31419007577919     -1.00746931112374     -0.21821667177904
  C   -0.90932819945565     -1.68756314735246     -1.36590188167341
  C   -0.44473263733690     -0.15055299417413      0.45194299420977
  C   0.35982384106523     -1.49991032948937     -1.85776123236108
  C   1.28577702033072     -0.66353523170744     -1.19385665317861
  C   0.90645061439886     -0.00988344865715      0.03217357150686
  H   -2.32335523565714     -1.14546217632589      0.14014197885001
  H   -1.60514739962563     -2.34614551797039     -1.87180253472344
  S   -1.05828871109114      0.81876468262031      1.81260966907412
  H   0.67941582061507     -1.99403765829424     -2.76801505235541
  C   1.92215936322767      0.73904868921782      0.71579600186588
  C   2.56813572397515     -0.46250070235325     -1.73336494306654
  C   3.52503609112960      0.36257256308319     -1.12162917580099
  C   3.21445931238919      0.96877746281910      0.13231328308791
  C   1.78976136772323      1.19709213463474      2.04884411990646
  H   2.81808222346633     -0.95465566412520     -2.66713622117878
  C   4.19665688243888      1.75876084994691      0.76197958297107
  C   4.80055105900094      0.59618429454311     -1.68229663900037
  C   5.74386973253055      1.37258440036966     -1.04885270217836
  C   5.44037366708803      1.95976064445612      0.18873261677225
  H   3.94858245230328      2.20853329079853      1.71220038360641
  S   6.71118962180061      2.94472792685497      0.92579264259633
  H   5.03487515151348      0.13388918304044     -2.63498231859531
  H   6.71928919957940      1.52734941178163     -1.49506798766520
  N   1.81998832869555      1.57534757333835      3.14190748078553
  C   -2.82447524062243      0.87429904130534      1.45622120260845
  H   -3.22492277802121      1.65701683348536      2.09954454551044
  H   -3.33120365011551     -0.06075235203666      1.69149983590803
  H   -2.99979262785548      1.13593489630606      0.41330874257413
  C   6.01492259760409      3.34461921198081      2.53365264214072
  H   6.78515743815109      3.89804882130127      3.06804762432219
  H   5.76737255007410      2.44002628392652      3.08719834990658
  H   5.12651649645906      3.96690033779963      2.43920674535339
