29
Coordinates from ORCA-job 866optt
  C   -1.41172943402055     -0.24628463521649      0.15373581282222
  C   -1.11006468675108     -0.95712465600058     -1.01164691003097
  C   -0.41464295651881      0.45448949434795      0.81401918982095
  C   0.18036753778761     -0.95870721139071     -1.50087385734662
  C   1.22340833304441     -0.25531535525454     -0.85256232805862
  C   0.90781233309409      0.47265663432394      0.34217609244560
  H   -2.42245438765441     -0.24168457309039      0.54302868442037
  H   -1.88732753011778     -1.50578200925637     -1.53057176797005
  H   -0.64859166880821      1.00543114694665      1.71777365167875
  C   1.96065989718674      1.18673409239145      1.00076784222135
  C   2.54218961074314     -0.24874140319391     -1.33881174389387
  C   3.58215220982047      0.45214862697257     -0.68877100629055
  C   3.29735216306467      1.18599903774924      0.50480245562601
  C   1.67236596288455      1.91148719422749      2.17820314484857
  C   4.34238831877629      1.88108283981244      1.15017063190361
  C   4.90794015116441      0.46164408267833     -1.16977128401996
  C   5.91822312158280      1.14668549429944     -0.52776631276571
  C   5.62714965475640      1.85913684605016      0.64081584148052
  H   4.10578558907700      2.42853911194320      2.05192182940159
  O   6.68924168521978      2.51183922000769      1.21942867743011
  H   6.93338788130864      1.14959541438197     -0.90256560684957
  N   1.44877498028113      2.51079643030301      3.14305946080055
  H   0.42029124788989     -1.50818447271933     -2.40498644125877
  H   2.77044399868545     -0.80164377475237     -2.24405433410972
  H   5.12841984545431     -0.09233779095888     -2.07588176334936
  C   6.43205913592901      3.23140984603285      2.39646441066087
  H   5.69989207813632      4.02729023258267      2.22861927840131
  H   7.37972394634208      3.67088430567400      2.70279438409093
  H   6.05994098164154      2.57879583110851      3.19228196789044
