29
Coordinates from ORCA-job 867optt
  C   -1.74259878202447     -0.52660474490109     -0.22139431214968
  C   -1.35698367543727     -1.19068748475331     -1.39035502042582
  C   -0.80733143355474      0.17576403524051      0.51712998756081
  C   -0.04009707051511     -1.14240355157475     -1.80253266828934
  C   0.94192806284529     -0.43570150223277     -1.07411650421305
  C   0.54253124957576      0.24393031161367      0.12247892443787
  H   -2.77399920220565     -0.56049258210634      0.10808198401188
  H   -2.08829677992689     -1.74088484826121     -1.97047114859650
  H   -1.10699728325030      0.69024649008862      1.42279968031624
  C   1.53368364045607      0.95946516825552      0.85912260091747
  C   2.28983916567467     -0.38007730151010     -1.48747448921417
  C   3.26708719401418      0.32223121762228     -0.76670503367185
  C   2.90046475621023      1.01120977476206      0.43265487781251
  C   1.15787749827906      1.63539052527383      2.04059733030611
  C   3.89881987003987      1.70572183750004      1.13492680497335
  C   4.62078724759912      0.37119281348919     -1.19558449984502
  C   5.56632835265116      1.06693399979340     -0.47480743293800
  C   5.21015669502536      1.74066344649268      0.70032524316019
  H   3.62416691361747      2.22748288421557      2.04434801309911
  H   5.97430088720385      2.27774063362261      1.24620098635704
  O   6.89273335115444      1.15871223585553     -0.83099458142125
  N   0.85282469255308      2.18834165214418      3.01066214431471
  H   0.26617860924108     -1.65491313477284     -2.70841973358761
  H   2.57778725812886     -0.89896339602284     -2.39595136453670
  H   4.87839234175193     -0.15489884303901     -2.10495494356227
  C   7.28557441157758      0.49771669988547     -2.00137016495216
  H   8.35246432343773      0.68032559708767     -2.11871376172844
  H   6.75422252171729      0.88323546250376     -2.87796871331027
  H   7.10885518416025     -0.58087739627231     -1.93222420482513
