33
Coordinates from ORCA-job 873optt
  C   -1.90984735408951     -0.59870143419955     -0.26377640234253
  C   -1.49513386295183     -1.44412385917449     -1.29394430167180
  C   -0.98625003300019      0.17775402509601      0.41775629588207
  C   -0.15748359521800     -1.50330873555909     -1.63616716891430
  C   0.80393691980662     -0.71831955996192     -0.96165261234776
  C   0.38390328724971      0.14742425950345      0.09840222697580
  H   -2.95674077338276     -0.54785113832822      0.01005167800471
  H   -2.21725130149855     -2.05617805630412     -1.82133645130872
  H   -1.31736439928524      0.82811902772887      1.21720983552681
  C   1.36404475762415      0.94407029740403      0.78386230814298
  C   2.16908094954439     -0.75743699767248     -1.29974126027619
  C   3.14828404587190      0.00488807546108     -0.63724800151940
  C   2.74843854995663      0.87938659495275      0.42296939245819
  C   0.85725982068434      1.77165353081455      1.81795068829526
  C   3.77147470088740      1.63471594205465      1.04845608553403
  C   4.51366161028570     -0.08317715318800     -1.00813909009870
  C   5.46551449816838      0.66899724460581     -0.36637321345672
  C   5.10093723692045      1.53869299372230      0.66903249025033
  O   3.35158275444930      2.46402287551728      2.04620179044507
  H   5.85809351725216      2.12695239181749      1.16586671365903
  H   6.50737229373294      0.59197084970383     -0.65326715761871
  N   0.31834043660880      2.39690189693146      2.62805409675056
  H   0.18369056895440     -2.16709951167833     -2.42012800301583
  O   2.56706866797698     -1.58161775259297     -2.34261488646736
  H   4.78694103708767     -0.77100669305550     -1.79659043184347
  C   4.29967823090645      3.23039267917000      2.72853320737221
  H   5.04406550717099      2.59965432582696      3.22695868638554
  H   3.74787391757087      3.79776918546783      3.47541668282524
  H   4.81824016158814      3.92253476853696      2.05579074740796
  C   2.52399396246123     -0.91846743270064     -3.58953945425663
  H   2.83755987507881     -1.63314972564329     -4.35179431839498
  H   3.20146518006581     -0.05801456166667     -3.59441712497088
  H   1.50896883152172     -0.57148835259009     -3.80964304741175
