33
Coordinates from ORCA-job 877optt
  C   -1.99022497843050     -0.68258031788726     -0.35418350348546
  C   -1.51840023998801     -1.38279443631176     -1.47199157479789
  C   -1.10176273006062      0.04499389472145      0.42314092944660
  C   -0.18965585393114     -1.33218248256343     -1.80685786395240
  C   0.73953930882269     -0.60474274632630     -1.02079946947826
  C   0.29009566121646      0.07149073087760      0.15568744865785
  H   -3.04387675284579     -0.69592560488801     -0.11745805846166
  H   -2.21499322576118     -1.95111229366432     -2.07691900919747
  O   -1.51436256186009      0.81303564492669      1.47029215353307
  C   1.25672018807649      0.73851540682704      0.99168529840662
  C   2.09808245252955     -0.54776502834691     -1.37391612555054
  C   3.02556574485053      0.23131937807702     -0.66232013219270
  C   2.60680517963177      0.91822159426106      0.51922240864112
  C   0.94368329735855      1.01139349510645      2.35048134055596
  C   3.56267653875103      1.74992709378181      1.15496460845667
  C   4.37273886255951      0.33692803510916     -1.09172993238615
  C   5.27974819882210      1.10344353172450     -0.40623296899426
  C   4.87814849503287      1.82852128862281      0.72299496068080
  O   3.09451690713537      2.49746072269439      2.19370858125362
  H   5.58798465805673      2.46033597366459      1.23618264247944
  H   6.30841960435729      1.16651261231343     -0.74096548025695
  N   0.71386310802036      1.15773533312105      3.47432885441828
  H   0.17932994141811     -1.85386397585235     -2.68242554669130
  H   2.43171980489742     -1.08173773293220     -2.25672682093246
  H   4.67073235971230     -0.20988425449172     -1.97894406911588
  C   4.01019649344298      3.16513402515877      3.01030840677835
  H   4.76877900868445      2.48009986428161      3.40351705160855
  H   3.43383664547730      3.57774355732207      3.83616254305975
  H   4.51383974027113      3.97924553907079      2.47600411654962
  C   -2.82437507034965      0.67219129049420      1.93421273997453
  H   -3.55620710104085      1.03311489883836      1.20208366653544
  H   -2.89131930065503      1.27422655838346      2.83838360261796
  H   -3.05315438420221     -0.37134159611414      2.17518920183913
