33
Coordinates from ORCA-job 878optt
  C   -1.83433365692593     -0.21652561038693     -0.13471428310352
  C   -1.52748668368065     -1.07131310275737     -1.19773234170343
  C   -0.82154652149456      0.46706948638718      0.51764218134447
  C   -0.21479566488184     -1.23149582010849     -1.59303915546259
  C   0.84485869593227     -0.54972069041746     -0.95035656012670
  C   0.52428929211477      0.32632718725444      0.13856309862429
  H   -2.86242359903894     -0.08673566120073      0.18050777966185
  H   -2.31754503436482     -1.60743579174686     -1.71022593679142
  H   -1.05943650762560      1.13000289177385      1.34161008833305
  C   1.59309515508319      1.01915031070572      0.79084205713730
  C   2.18701322136135     -0.70476523511657     -1.34405434229081
  C   3.24126456828423     -0.02216895554984     -0.70332685698491
  C   2.95285658363058      0.85898595860455      0.38439935089972
  C   1.30352772028396      1.88551971147761      1.86712531378288
  C   4.01439301534282      1.53570946273729      1.01649903169661
  C   4.58946944161035     -0.16820882606713     -1.09565199496435
  C   5.61196216954712      0.50003938851440     -0.46292206093748
  C   5.32489232777602      1.36415921966890      0.60806219940372
  H   3.77639536071432      2.19534058332297      1.83953757921800
  O   6.40150434341060      1.98674405804170      1.18664170455659
  O   6.91876064660346      0.29746147632574     -0.86093870844568
  N   1.08364534354949      2.59730745519058      2.75334041972931
  H   0.02933541639493     -1.89391015896592     -2.41670801022684
  H   2.41813806956847     -1.37111864974911     -2.16818902548033
  H   4.84200872206460     -0.83307847236005     -1.91386589256785
  C   6.13653269652309      2.82107969339454      2.28462209631572
  C   7.44646528065332      1.37308202484562     -1.60852706023278
  H   7.09878394490332      3.20518184060545      2.61793446355141
  H   5.66230544258496      2.26802127920550      3.10075192232049
  H   5.48699908633997      3.65677005833946      2.00663009144132
  H   8.47099150360293      1.10891670694671     -1.87052241455284
  H   7.44698813879849      2.29580904967881     -1.02348123647676
  H   6.86485148133359      1.52611913140542     -2.52380349766841
