21
Coordinates from ORCA-job 87optt
  C   -3.00757024404148      0.71052506033504      0.38629804037985
  C   -2.88325479603079     -0.65359220817561      0.38927773563339
  C   -1.90489705796557      1.54060757661510      0.00008736125196
  C   -0.68653394159264      0.89632501623282     -0.39051587272084
  C   -0.59311358510909     -0.47023702843632     -0.39731107247396
  C   -1.67968435913164     -1.29603951520762     -0.00373416833237
  H   0.16711031525475      1.49541511926284     -0.67946529932057
  S   0.92413395939674     -1.21616792783225     -0.93177222148354
  H   -3.94585802951698      1.16640972585344      0.67401462012756
  C   -2.01557731996153      2.93854079173133      0.00247049371753
  S   -4.26354893591590     -1.63072454437254      0.92307688632394
  H   -1.59285305086887     -2.37311179452915     -0.00349254473049
  N   -2.10722673293040      4.09797537962661      0.00458062572356
  C   -4.60717579483388     -2.55643145898718     -0.59587000264638
  C   1.43003354124590     -2.04081158218244      0.60064144832765
  H   -5.46304178382330     -3.20067543758588     -0.39576539901426
  H   -3.75260491382686     -3.16863930925649     -0.87771577177362
  H   -4.84680028711715     -1.87036752764245     -1.40706171635695
  H   2.37563884633121     -2.54461975300454      0.40134735454482
  H   0.68708906361361     -2.77471755168905      0.90731164279951
  H   1.56583510682387     -1.30678303075565      1.39359786002321
