33
Coordinates from ORCA-job 881optt
  C   -1.60654860351792     -0.36927461272386      0.04750285625237
  C   -1.38512455145347     -1.06147781270335     -1.15088588259908
  C   -0.55819532726480      0.28859955312854      0.65760659755404
  C   -0.13194377451887     -1.08676106475877     -1.72127312811783
  C   0.96171471442197     -0.41721727894373     -1.11067722305820
  C   0.73877836376230      0.28863878555573      0.11364002246891
  H   -2.60186638665273     -0.36614088027484      0.47155857026889
  O   -2.48836977575521     -1.68847787148765     -1.68363873624764
  H   -0.73026973680394      0.82308041387387      1.58466880742832
  C   1.84304258283280      0.95874621238429      0.72556706880796
  C   2.24600276209583     -0.43468705283408     -1.67863262094292
  C   3.34120302819010      0.21981232652262     -1.08379726191125
  C   3.15160371585545      0.93583398559477      0.14582994421809
  C   1.64134787674452      1.65741981830777      1.93524388055069
  C   4.25640076739145      1.57627874974525      0.71848566866929
  C   4.63008233295420      0.19727923615835     -1.65540165922648
  C   5.69578606625300      0.84179762594465     -1.05974741916208
  C   5.51938947568958      1.54063522572855      0.13764379982707
  H   4.11819256539176      2.11775427374941      1.64698335565295
  H   6.33961514307682      2.05158150305972      0.62028909987872
  O   6.90568898447111      0.74591861512618     -1.71335031150432
  N   1.47863861566449      2.23243023814088      2.92691479799270
  H   0.05646388992609     -1.61555967601390     -2.64597328287518
  H   2.40178255951292     -0.97303881205333     -2.60753610919494
  H   4.79725049705411     -0.33658906380343     -2.58330446923140
  C   8.00090705586781      1.39461109911585     -1.13028656515981
  H   8.85384590486074      1.21002175384482     -1.78137506898080
  H   8.21866394487559      1.00062132629006     -0.13180351886706
  H   7.83543979086193      2.47449665263081     -1.05169022323590
  C   -2.30699198479968     -2.38472067530103     -2.88515796163589
  H   -1.96947247213728     -1.71998728719290     -3.68742662052940
  H   -3.27543742962802     -2.80553876091313     -3.15033450953688
  H   -1.57884059522269     -3.19510654589812     -2.77382189755292
