33
Coordinates from ORCA-job 887optt
  C   -1.93384394607221     -0.34930211410810     -0.18244166554536
  C   -1.65995745127332     -0.91300625364769     -1.43283991700953
  C   -0.91313729121321      0.21741767446322      0.56060769341589
  C   -0.36810414171749     -0.90657542610655     -1.91902549210765
  C   0.69987977356662     -0.34301232965387     -1.18485432651853
  C   0.41193210551355      0.24273123863785      0.08909180924824
  H   -2.94505915622593     -0.35273592568774      0.20593506599265
  H   -2.45853396837132     -1.35357681973939     -2.01789083400160
  H   -1.12680791428724      0.65940770342256      1.52687844741596
  C   1.48835636204864      0.83846409408710      0.81524378465552
  C   2.02330860235616     -0.34101055374042     -1.67149791792596
  C   3.09152897865729      0.21959661108324     -0.94478099155040
  C   2.82737046282206      0.84983371336371      0.31454235331737
  C   1.21681707466140      1.44770675292718      2.06098707337997
  C   3.88166247602876      1.47850515983253      1.00344534322183
  C   4.43578760898929      0.20124758060480     -1.42297808478669
  C   5.44213538000723      0.84198896713423     -0.71966685059890
  C   5.16075959567503      1.48999489324285      0.48789687641240
  H   3.66786145525247      1.96814472472006      1.94577029969261
  H   5.95681133961389      1.99169939772281      1.02452672950483
  H   6.45649511305202      0.83873578948619     -1.09607681023382
  N   0.99159518248855      1.94364880940254      3.08200746724316
  H   -0.14735955432270     -1.34278482538668     -2.88744942395854
  H   2.21449782503917     -0.75327751283538     -2.65358386999621
  N   4.69689115874273     -0.49522080495158     -2.64383837411488
  C   5.88149311760012     -0.09227894460602     -3.36186264083750
  H   5.90112325127547      0.99214511450074     -3.46644342553456
  H   5.86152720129154     -0.54231807763500     -4.35723854588342
  H   6.81769518983101     -0.41149603423500     -2.87286152745822
  C   4.65393058216403     -1.94084897566472     -2.49154955129958
  H   4.63122703868736     -2.41427144010178     -3.47667278118087
  H   3.76060981566276     -2.23150458436964     -1.94257444817800
  H   5.53615673245613     -2.31395760216201     -1.94577546478018
