41
Coordinates from ORCA-job 897optt
  C   -1.75017636855462     -0.56222648156813     -0.44839062546911
  C   -1.34757852101005     -1.21055647356537     -1.63074301270180
  C   -0.77808555190904      0.09497032153986      0.30587982071297
  C   -0.02576852475862     -1.16797966174299     -2.03310802268917
  C   0.97044158363643     -0.49852046763505     -1.29840275778734
  C   0.56909062453458      0.15041562778873     -0.08732453458815
  N   -3.10628989671844     -0.55660214044545     -0.05305148353951
  H   -2.05991750803883     -1.74470277738827     -2.24200428973668
  H   -1.04095716468462      0.58979889297036      1.22945704824559
  C   1.56619071152660      0.82724829319698      0.68217808508058
  C   2.32107312933611     -0.45309504638623     -1.69931001952050
  C   3.30474720702956      0.21377798687322     -0.94127558386933
  C   2.93650287593292      0.86980021317356      0.27626581276236
  C   1.18650772945198      1.47191465890254      1.87951336717272
  C   3.92380533590079      1.53381047131700      1.02298292496055
  C   4.65671681170234      0.27927357896210     -1.32670146843625
  C   5.61471726641840      0.93647724978063     -0.57784791106531
  C   5.26114771791911      1.56924395397392      0.62851714280885
  H   3.60581457313437      2.02274894920822      1.93225603685914
  N   6.24148642089897      2.19699487999400      1.42887707543236
  H   6.63441012364088      0.94845007256960     -0.93355340330136
  N   0.87526420087906      2.00002967099215      2.86178201240793
  H   0.26441406587788     -1.67344715533523     -2.94825649814387
  H   2.61290620647409     -0.94775533979289     -2.62003437357632
  H   4.94987310849127     -0.20362781582289     -2.25301403847213
  C   5.76124758419465      3.10789651592834      2.44461692711566
  H   5.16140698872366      3.93203162885764      2.03031656326454
  H   6.61573576705276      3.52697110491126      2.97478669685103
  H   5.14554731184402      2.58083623289957      3.17233283668309
  C   7.44099065719389      2.63845026660491      0.75446261880739
  H   8.08656299463871      3.14131553368729      1.47367227634355
  H   7.23406399945419      3.32991586203329     -0.07696554527638
  H   7.99702046523307      1.79032348122933      0.35527464868620
  C   -3.37683279868381     -0.21058535565743      1.32527956513592
  C   -3.93583472813557     -1.61932479481085     -0.57315327460268
  H   -3.05566835824576      0.80861761849863      1.53591315950950
  H   -2.87085021785922     -0.87730959982836      2.03944419777994
  H   -4.45141006327855     -0.26127978524550      1.49722508478251
  H   -4.02623763180755     -1.54607612036434     -1.65695852321878
  H   -4.93734392267632     -1.52308322836032     -0.15538885769901
  H   -3.54832420475943     -2.62138082194382     -0.33228967770864
