29
Coordinates from ORCA-job 905optt
  C   -1.84341200315156     -0.27711783750991     -0.10850679561968
  C   -1.57152307825671     -0.88865615710689     -1.32292921288773
  C   -0.82624748973953      0.36387404671721      0.61256868575160
  C   -0.27576418149818     -0.89660998285326     -1.80356651730314
  C   0.77952167941319     -0.26397460468294     -1.11090634920981
  C   0.51450112096510      0.44876360618703      0.11694310231709
  H   -2.36594439199833     -1.37616059617438     -1.87375623076161
  C   1.55743087021076      1.18134892195164      0.73455189753895
  C   2.08287168746698     -0.28445580708140     -1.61351313231204
  C   3.15289783285088      0.30098406590997     -0.93253953104366
  C   2.89375436365366      1.01214100005498      0.29737507598211
  C   4.04549612623947      1.51463465313776      0.98398931890730
  C   4.46598223308125      0.23451685076706     -1.44769129065580
  C   5.53800855679909      0.80423558211846     -0.78717269332469
  C   5.33251056776743      1.42515071882481      0.43553242726834
  H   6.53550292126179      0.74589219562252     -1.20404804423587
  H   -0.04123700942336     -1.39502593569959     -2.73733661551593
  H   -2.83774692134262     -0.30893770706357      0.31667897481852
  H   6.16444034591995      1.82447704749820      1.00024252891610
  H   2.27393002275647     -0.79057246854039     -2.55374180348030
  H   4.61454260670548     -0.28098902644352     -2.38976054488888
  C   1.23006377994254      2.23591291820309      1.76051600043331
  C   4.01310738322036      2.01638792984986      2.32230480478813
  N   4.09285186569394      2.39628266963575      3.40752161466295
  C   -1.21562105223108      0.78778423649484      1.92133723346105
  N   -1.61268140259817      1.05855758170972      2.96894592921218
  H   0.24436230389627      2.65397375760619      1.56061470274875
  H   1.94553733290496      3.05427051432651      1.69227618983334
  H   1.23211392948986      1.88704182654026      2.79483027459944
