32
Coordinates from ORCA-job 906optt
  C   -1.79349326276646     -0.11395077591381     -0.11484346359278
  C   -1.49631940486316     -0.83865082324303     -1.27710859475566
  C   -0.74962469798737      0.53580641111463      0.56302312245702
  C   -0.18855066249347     -0.90089615848926     -1.73163844533519
  C   0.88119508433369     -0.26262215953564     -1.07329203906518
  C   0.60545058157992      0.48667693512867      0.12150989980578
  C   -2.59309301326716     -1.54553604373312     -2.02729734846365
  C   1.66088096856788      1.12401157597216      0.78809716003754
  C   2.20169929548467     -0.33035928727456     -1.53833574546610
  C   3.26286774448567      0.30474675700768     -0.87991725797228
  C   2.97905932078696      1.05159339428851      0.32085561891986
  C   4.07829043714762      1.68297700997207      0.97261936529459
  C   4.59237787165812      0.23848047326721     -1.34952559005554
  C   5.63212535280147      0.87136036999104     -0.68641641333568
  C   5.38135854297290      1.59275684417626      0.47314709184128
  H   6.64259594106162      0.80450407744548     -1.06976051662311
  H   0.03180271852397     -1.46370456794081     -2.63350145241264
  C   -3.21253940958084     -0.04587201295871      0.37717680696892
  H   6.18339781548326      2.08983654675806      1.00241408575531
  H   2.40965431876169     -0.89483078557429     -2.44142894351447
  H   4.78768115352420     -0.32621285233544     -2.25427305290920
  H   1.45304004050413      1.68781664186860      1.69027694922860
  C   3.86663270479568      2.42873828374275      2.16986706853636
  N   3.72388599503224      3.03520657359272      3.13929459382811
  C   -1.05180702520419      1.27796002770717      1.74453456880325
  N   -1.31546297939993      1.87313376046880      2.69545637139038
  H   -3.86473867033207      0.41991625641377     -0.36744341799527
  H   -3.29446510816095      0.52553996667016      1.29925811152189
  H   -3.61191498594604     -1.04693839123144      0.56256195088272
  H   -2.19383265299140     -2.04548223732224     -2.90947807541812
  H   -3.37056418817808     -0.85036397178668     -2.35632948192484
  H   -3.08674982633467     -2.29920183824675     -1.40728292643190
