32
Coordinates from ORCA-job 909optt
  C   -1.85637682120278     -0.11214744555780     -0.15165670473454
  C   -1.53995992277654     -0.79413143743146     -1.32162553704517
  C   -0.81892535586917      0.51130983829256      0.55958072397986
  C   -0.23188947379653     -0.85951610683461     -1.78024831404131
  C   0.82781907384026     -0.24498878354376     -1.08917776197265
  C   0.54055609275708      0.46829339553788      0.12718612517685
  H   -2.33342742710331     -1.27909415817531     -1.87852369152565
  C   1.59013404677431      1.07822159437018      0.82072067097053
  C   2.15773884159021     -0.30143671599356     -1.54258158402294
  C   3.21502085604424      0.30913383024791     -0.85449349219599
  C   2.91541983719190      1.01680053718067      0.36513479085721
  C   3.99751680537984      1.62857837903504      1.05870118171143
  C   4.55754039362008      0.25174845750509     -1.31962345162472
  C   5.57000305306137      0.87096743449606     -0.60163727789601
  C   5.30427440199248      1.55468164644877      0.57807523461923
  H   6.58861460005489      0.81935742610756     -0.96914075269706
  H   -0.00619044750081     -1.39536788752269     -2.69555885669298
  C   -3.27106228199044     -0.03833635287279      0.34771184135532
  H   6.10095280773897      2.03273896013266      1.13217130945406
  H   2.35520680334675     -0.84068756553624     -2.46051457384746
  C   4.87085339867020     -0.48066005407122     -2.59093990750506
  H   1.37555916601208      1.61427735228344      1.73822683645159
  C   3.76444556836637      2.33678355384103      2.27544072438720
  N   3.60728241106754      2.91314971221371      3.26048315189178
  C   -1.15459804706718      1.20887285528829      1.75644159024380
  N   -1.46308962003122      1.76569530886208      2.71758320629225
  H   -3.94367179433624     -0.56819261089882     -0.32641670694831
  H   -3.60792349379720      0.99777359394649      0.43169562406392
  H   -3.36249263143634     -0.47610184801393      1.34481413786551
  H   4.58295472711939     -1.53455613672407     -2.52614560056690
  H   5.93707001793634     -0.43138482640932     -2.81181465414624
  H   4.32527441434323     -0.05751194620393     -3.44006828185745
