27
Coordinates from ORCA-job 912optt
  C   -1.84813990894223     -0.13828102671903     -0.12933234435196
  C   -1.57649671925027     -0.83567695842078     -1.29878655221848
  C   -0.82720667992447      0.50028074238998      0.57534758264327
  C   -0.27149885473151     -0.89697671187431     -1.77305803513518
  C   0.79374617910606     -0.27387955971384     -1.10327467259915
  C   0.52665914624212      0.45079948630668      0.11398047154982
  H   -2.38514377704010     -1.32457803778108     -1.83104837064037
  C   1.58101370020711      1.06818676984868      0.78762690194695
  C   2.11757938969131     -0.32894013345344     -1.57542860779568
  C   3.17845490727726      0.28942065414979     -0.90754330948123
  C   2.90145385831101      1.00640025044718      0.31193833950245
  C   3.99988688791948      1.61980276434858      0.97365049727077
  C   4.50885917003332      0.23639821991402     -1.38464217844949
  C   5.54857659566346      0.85231501353758     -0.71039971882346
  C   5.30251263279470      1.54436331836946      0.46917018437083
  H   6.55762946662311      0.79617877692490     -1.09937034429274
  H   -0.05922551856635     -1.43971048846992     -2.68694978373153
  O   -3.11617708104127     -0.04895206967402      0.37463034657931
  H   6.10573856390794      2.02837211878794      1.00824081149248
  H   2.32137221921215     -0.87139127459706     -2.49284265609877
  H   4.70100953808719     -0.30492929155088     -2.30421650299965
  H   1.37669320394062      1.61026280334417      1.70373208480302
  C   3.79251583876518      2.33646432230730      2.19073407186252
  N   3.65653291306987      2.92168262874380      3.17359381340861
  C   -1.15590689095500      1.20559262879806      1.76646741783891
  N   -1.41207979419001      1.77963210551030      2.73160338224846
  H   -3.70886898621071     -0.52970705147409     -0.20940282889965
