28
Coordinates from ORCA-job 917optt
  C   -1.87320058043817     -0.16861693499144     -0.17961789086136
  C   -1.57660775500120     -0.85318707314036     -1.34191830729633
  C   -0.87550693908199      0.48113500027782      0.56308117215976
  C   -0.25686186508591     -0.89969075556725     -1.78630020822411
  C   0.78986158698091     -0.26938135482458     -1.09267037872126
  C   0.50405935017927      0.45631061371867      0.12705177634699
  H   -2.36970884743832     -1.34494468825877     -1.89426127118324
  C   1.56568515212301      1.07548295973043      0.79181296127700
  C   2.10698596598097     -0.32846863998127     -1.56303380713328
  C   3.16349020665526      0.28976097252931     -0.89626843355411
  C   2.90165733810487      1.01267416077058      0.31707757970316
  C   4.00566368818818      1.62692567349366      0.97150313526776
  C   4.48922890769579      0.22186828583934     -1.38889472253443
  C   5.53428820496296      0.83168628207938     -0.73260767531084
  C   5.29796224671580      1.53308364788519      0.44627295901830
  H   6.54076629620277      0.76837425406221     -1.12719303866737
  H   -0.01447044184939     -1.43442660100170     -2.69652591426615
  O   -3.15123809065733     -0.09181050525883      0.30423811277037
  H   6.10874167523700      2.01513279797482      0.97494816252413
  H   2.31001807590488     -0.87264502066425     -2.47852519656529
  H   4.66223156557058     -0.32809986154131     -2.30677844410236
  O   1.42193071301519      1.79266783283976      1.94060111418728
  C   3.93139741584396      2.37698679857807      2.19326203264003
  N   4.04573831010074      2.99702957212759      3.15597580020867
  C   -1.30636299465292      1.13463188568210      1.74333943776535
  N   -1.63628543345926      1.67320241000335      2.71170010154588
  H   0.51789776360978      1.80696450179849      2.27334072384210
  H   -3.72801151540747     -0.57909621416100     -0.29014978083666
