28
Coordinates from ORCA-job 920optt
  C   -1.89967561111613     -0.14870510306522     -0.15884389810003
  C   -1.61690574109463     -0.75387468426483     -1.36527679331109
  C   -0.87792233768225      0.45814718325635      0.59837908249934
  C   -0.30819201729192     -0.79078308292788     -1.83556655179677
  C   0.76090468209703     -0.22251229118930     -1.09819722897521
  C   0.49177374238928      0.46577544979509      0.14938965388138
  H   -2.41618214225365     -1.19078813559097     -1.95029416832581
  C   1.55394510024397      1.08260307640168      0.81756644135290
  C   2.07825812049941     -0.31517360128446     -1.54313777714648
  C   3.14545204827539      0.29929634116896     -0.87730124132391
  C   2.87707062720505      1.03417308733609      0.32535650328189
  C   3.98605758257775      1.66367586031804      0.96416825529363
  C   4.46495232185370      0.20775268292004     -1.37116964759105
  C   5.51061877993447      0.82623020768176     -0.72293243560011
  C   5.27262875218624      1.55544334020482      0.43937729244490
  H   6.51753764632413      0.75051852173568     -1.11324023504095
  H   -0.11721755406664     -1.21372169533157     -2.81333737432142
  H   -2.91111056539841     -0.12081779095970      0.22412114967322
  H   6.08398480021877      2.05072456841429      0.95548133933517
  O   2.38088538777549     -1.01911230386564     -2.69309850759071
  H   4.63047939511132     -0.35878435907970     -2.27648521584195
  O   1.41379846755352      1.77956680967678      1.98189699489752
  C   3.91102625538594      2.44999809664545      2.16309809354383
  N   4.02261576068660      3.10273716088422      3.10403403304147
  C   -1.29117266585856      1.04194369586728      1.82100401490347
  N   -1.64745534134926      1.51142526341199      2.81711417267895
  H   0.51311454522643      1.77861810607171      2.32227438608925
  H   1.75179996056690     -1.74314640423098     -2.77271033795145
