28
Coordinates from ORCA-job 921optt
  C   -1.88232364345154     -0.16657017717937     -0.18887612611829
  C   -1.57065061138495     -0.86544492691956     -1.34297077525381
  C   -0.88281669241782      0.49339915839682      0.54487935443827
  C   -0.25830949237887     -0.91543132138401     -1.76966382512486
  C   0.78219493544870     -0.26511159694128     -1.06784300126475
  C   0.49403446058112      0.48098778885648      0.13368149501398
  H   -2.35157521729988     -1.36836153575811     -1.89932570134669
  C   1.56064494846841      1.14173618345970      0.80167006187514
  C   2.09168156233343     -0.33044176230617     -1.53950152556183
  C   3.14963302747682      0.29419564045451     -0.88252999519913
  C   2.89650640140380      1.03928543126412      0.32769273206440
  C   4.04953338760623      1.63230259000657      0.94730649723613
  C   4.46049860438967      0.20675724534288     -1.40439566845158
  C   5.53573443668821      0.81397507127831     -0.78594784110992
  C   5.33318226849987      1.51925424279983      0.38831984619551
  H   6.53028062746125      0.73714252523753     -1.20701132765376
  H   0.00602185716359     -1.45914757696038     -2.66909610648027
  H   -2.90076480856960     -0.12085279013450      0.17262823455803
  H   6.16118659793790      1.98937405164050      0.90156123777467
  H   2.29348683189109     -0.88304208789589     -2.44996872947120
  H   4.59997786251094     -0.35593028323466     -2.32003029136373
  N   1.27808559666771      1.97602305017589      1.88201953761391
  C   4.05100551555698      2.34129415854546      2.18458837638648
  N   4.13995045442475      2.90648799168173      3.18724801357648
  C   -1.38988861137149      1.11458723943925      1.72439363381766
  N   -1.87716696801495      1.57203369789953      2.66557989156180
  H   0.42971401958363      1.80229921766895      2.39109051044154
  H   2.03111264879489      2.18966877456581      2.51145149184585
