28
Coordinates from ORCA-job 924optt
  C   -1.85079307919763     -0.15804867269426     -0.03790301821186
  C   -1.59160510268743     -0.84532905224465     -1.21453512649128
  C   -0.82255070109982      0.48822625298434      0.64123011945583
  C   -0.29946181935007     -0.91005779515089     -1.72168158980195
  C   0.78298558473869     -0.29910465873073     -1.03892433122835
  C   0.51948961687497      0.44494225397977      0.16049835193163
  H   -2.39987779532675     -1.33075437433633     -1.74949061192739
  C   1.58056062615158      1.09232745942303      0.81105108772029
  C   2.10835524038413     -0.38537461405614     -1.50181697021919
  C   3.17367520897131      0.25774849366329     -0.85266778510028
  C   2.89466898020477      1.02625539295853      0.33460894823879
  C   3.99469171316219      1.67601386488869      0.96697486192952
  C   4.50235082872431      0.16966930252791     -1.31741673067234
  C   5.54668312405621      0.81474257049583     -0.66892779478258
  C   5.29898430160934      1.56807757580928      0.46830512350312
  H   6.55702532586546      0.73136186654192     -1.04934965936519
  N   -0.04700933645463     -1.62540567784587     -2.90428745931192
  H   -2.85743058335240     -0.10850464787902      0.35555009208412
  H   6.10259712469545      2.07777090519218      0.98304537783004
  H   2.34648267469152     -0.99737493061912     -2.36296474071256
  H   4.69594800916527     -0.41849959005753     -2.20749396013356
  H   1.37474787085613      1.65783865214521      1.71258444902059
  C   3.78438767165658      2.45509696654794      2.14172483338704
  N   3.64088036756528      3.09137010808398      3.09208458107351
  C   -1.14271513240827      1.20120374655650      1.83353901932675
  N   -1.43158971326424      1.76872103130984      2.79368343762038
  H   -0.88048762143386     -1.76484917353894     -3.45627915124453
  H   0.68362661520178     -1.21468325595480     -3.46913135391858
