26
Coordinates from ORCA-job 927optt
  C   -1.83448126519918     -0.14311745778621     -0.13974194072844
  C   -1.56653919366680     -0.83876164910022     -1.30665368121199
  C   -0.81917161575775      0.50064601718731      0.57599680770528
  C   -0.26509503418885     -0.89943772037960     -1.77841148922207
  C   0.80316533452923     -0.27334948672034     -1.10397324883885
  C   0.53322672060292      0.45091591292143      0.11385395465227
  H   -2.37674896120243     -1.32364218463770     -1.83296050129773
  C   1.58851166901911      1.06969904236569      0.78897655146863
  C   2.12049811682459     -0.32848822509084     -1.57410268350391
  C   3.18464990824386      0.29177365612159     -0.90455569902995
  C   2.90704362890505      1.00771316616496      0.31279260589916
  C   4.00678313585777      1.62242378108694      0.97455206881854
  C   4.51132001457297      0.23753661113585     -1.38267094814113
  C   5.55230976176620      0.85326804634956     -0.71061355564845
  C   5.30553936036950      1.54610035715214      0.46929053429119
  H   6.56093505908290      0.79701961718369     -1.09988052433557
  H   -0.05191633948490     -1.44165636007531     -2.69203433823145
  Cl  -3.47279655083418     -0.07598189441820      0.43635899053278
  H   6.10944405742748      2.03038255131362      1.00724796437843
  H   2.32506833600349     -0.87080585116051     -2.49114160557086
  H   4.70203113477594     -0.30453134700274     -2.30204526571490
  H   1.38440927267812      1.61168314254792      1.70498704776377
  C   3.79941647377518      2.34009641376781      2.19185060382290
  N   3.66157968339024      2.92530425146907      3.17395678371227
  C   -1.12322595008845      1.21094403109078      1.77086912262079
  N   -1.35138675740208      1.79106557851329      2.73930244580929
