26
Coordinates from ORCA-job 928optt
  C   -1.85524383588142     -0.11384096451535     -0.08933809043967
  C   -1.56097668955566     -0.80499216472059     -1.25075509862912
  C   -0.81430137363219      0.52001060443684      0.59909137902399
  C   -0.27604738083574     -0.88543354679252     -1.75096728860823
  C   0.79487866503245     -0.25623119257957     -1.07759171085739
  C   0.53384287554607      0.47113490919462      0.14158750415579
  Cl  -2.85850291340663     -1.60072467019358     -2.10927481302774
  C   1.59633759084639      1.08660276318810      0.81118781991451
  C   2.10727823196141     -0.31561453104733     -1.55536882021169
  C   3.17763928682789      0.30213539370625     -0.89044704711570
  C   2.91044221324302      1.01897180124637      0.32873218500616
  C   4.01798148211578      1.62826643997177      0.98500352442077
  C   4.50019735329534      0.24287091592830     -1.37652417441492
  C   5.54839791083069      0.85332966091488     -0.71064497875821
  C   5.31200662336956      1.54616226752132      0.47179076480727
  H   6.55420996638539      0.79284140345185     -1.10627972865504
  H   -0.08301748451820     -1.43324265878762     -2.66391666073117
  H   -2.86801863638049     -0.06207508879405      0.28259306109242
  H   6.12182865284768      2.02579189870185      1.00509119658803
  H   2.30625418709709     -0.85873337453200     -2.47291863867534
  H   4.68287084052107     -0.29935956271626     -2.29741271228423
  H   1.39796577575319      1.62954044246918      1.72819289052005
  C   3.81946812583345      2.34492097119945      2.20426244598221
  N   3.68526857636409      2.92862756539751      3.18776217337090
  C   -1.13721851577295      1.22912275666455      1.79264031337526
  N   -1.41896152788730      1.79668796068602      2.75475450415110
