29
Coordinates from ORCA-job 941optt
  C   -1.84073426390827     -0.10493563005418     -0.19359646778446
  C   -1.56148315240585     -0.81480591495928     -1.36230120269559
  C   -0.82643358068755      0.52910015819976      0.51328475065279
  C   -0.24460829855988     -0.86528474765955     -1.82796573592088
  C   0.81227717794401     -0.24886473067551     -1.13950576671797
  C   0.54030283017475      0.47338543877267      0.08239301521054
  C   -2.60384011053914     -1.50576294372792     -2.14949832790868
  C   1.58104913952733      1.07670222421335      0.77429099665837
  C   2.13769318115466     -0.30930032774072     -1.59351516414592
  C   3.19484566763545      0.29830379233612     -0.90266194352995
  C   2.91110137013432      1.00689132374274      0.31444890977448
  C   4.00227462428995      1.60509871687747      0.99633897136768
  C   4.52961157892782      0.23656564959116     -1.36279849965967
  C   5.56330124448060      0.83597753951848     -0.67179094899687
  C   5.30669808191131      1.52246680073826      0.51230925295387
  H   6.57681964735869      0.77397370925361     -1.04691505104650
  H   -0.04326037663030     -1.40511782204957     -2.74431410285121
  H   -2.85274266618244      0.01841203783639      0.17506302660000
  H   6.10715281288789      1.99450551994412      1.06556747971275
  H   2.35100039716038     -0.84615824980791     -2.51112721985121
  H   4.72873811410341     -0.29928689731699     -2.28376425218508
  H   1.36832734600468      1.61514411723654      1.69080746254209
  C   3.77940304942062      2.31503197706495      2.21776761830726
  N   3.62768320072572      2.89223648660432      3.20165950543925
  C   -1.17468616068036      1.25282948139222      1.69079865423344
  N   -1.47589072914266      1.82900581470204      2.64160754480531
  O   -2.45849819414462     -1.90415183394045     -3.27415667929954
  O   -3.80422229120588     -1.70862152212277     -1.54003585579890
  H   -3.74062963975467     -1.46269016796939     -0.61144996986541
