34
Coordinates from ORCA-job 945optt
  C   -1.07733207069657      1.11477634158524      0.49050328658634
  C   -1.02149196987117      1.11494825238495     -0.89661014035568
  C   0.08411945380495      0.86261780153630      1.23775081027289
  C   0.17483493187448      0.86702760152138     -1.54923647898454
  C   1.37240553172494      0.63628521432168     -0.84086345934563
  C   1.34131791155920      0.64086360451975      0.60130149242960
  H   -1.92646698398940      1.32087013657550     -1.45413474206401
  C   2.52569028615191      0.41869930290323      1.31060466195070
  C   2.59342218719984      0.40459723888089     -1.48521545430459
  C   3.78524565093400      0.18142598701027     -0.78096821998346
  C   3.74568465119601      0.19082224163361      0.65817986509629
  C   4.97107656696668     -0.03456278370586      1.34728499206139
  C   5.01545082115012     -0.04936917635974     -1.43266316482695
  C   6.18501587481949     -0.26421923971152     -0.72488434190697
  C   6.16807314606329     -0.25762184486104      0.66541522905928
  H   7.11557429888816     -0.43766084242269     -1.25017560574520
  H   0.20803311379188      0.86477409673490     -2.63233171130943
  H   7.07434366821501     -0.42347081484172      1.23235341824381
  H   2.61876991228927      0.39968761619308     -2.56980369818912
  H   5.02701241558927     -0.05372704755767     -2.51678991328152
  N   -2.33071664618126      1.31325133685020      1.13078490585151
  C   4.99760291783047     -0.03387488744738      2.77489080412485
  N   5.04545564104322     -0.03669407137454      3.92549292340079
  C   -0.00405267873531      0.82192630658402      2.65737808500654
  N   -0.09516290317749      0.79279258401678      3.80592077113157
  C   -2.62046475793409      2.19658343582449      2.12440054016221
  O   -3.64443453714647      2.17539654609032      2.76952813358415
  O   -1.65507973576306      3.11395976032006      2.27436872427351
  C   -1.72420874980630      3.85892369530396      3.48259420562478
  H   -2.68103366860926      4.37267856387780      3.56404767786308
  H   -0.90614043953134      4.57215112737111      3.43535682734513
  H   -1.58850101517232      3.18973817079255      4.33238661598114
  H   2.50099653464625      0.42222487036550      2.39422036961210
  H   -3.06495935912442      0.64402887508450      0.96645259063539
