34
Coordinates from ORCA-job 946optt
  C   -0.46726134286691      1.01924505586835      2.09966266603256
  C   -0.78552680798739      1.34258135861316      0.78813880362227
  C   0.83469288390323      0.61693137069194      2.41208178603799
  C   0.17218881115234      1.24417653786534     -0.21074292627751
  C   1.48797864418894      0.81497606749419      0.06352380674672
  C   1.85011475715282      0.49346021833247      1.42203501845319
  C   3.15722353115068      0.08105955189137      1.70353417746512
  C   2.46158373062380      0.70237188354853     -0.93428975986219
  C   3.77418342348549      0.28858437850899     -0.66016427255517
  C   4.12708636074428     -0.03040735278754      0.69885431696232
  C   5.46636145681920     -0.44917368503715      0.94580657433557
  C   4.75414759614760      0.17522733947388     -1.66815629225865
  C   6.04541559142676     -0.23591333330911     -1.38598613155996
  C   6.40600501558841     -0.54943651125724     -0.08010716873146
  H   6.77772068207786     -0.31476783500023     -2.17932776220960
  H   -0.08895502764857      1.51027370959530     -1.22929300357372
  H   7.41122481828305     -0.87235940654007      0.15556884780870
  H   2.19431691663112      0.94482086414048     -1.95736219069334
  H   4.47174915106086      0.41984772888640     -2.68596372797450
  N   -2.10666484503424      1.71527798381310      0.41071094139748
  C   5.87670135945622     -0.78009744307684      2.27272865421322
  N   6.22955561546795     -1.05443283619137      3.33411607218450
  C   1.12950389950847      0.30969308892882      3.77309813300993
  N   1.34897861612918      0.06622500814667      4.87745140719882
  C   -2.96193812574742      2.58851704978031      0.99382734847715
  O   -4.04950140497425      2.87624552545007      0.53835079380844
  O   -2.48209492430156      3.10492940854390      2.13748213676627
  C   -3.34143015305545      4.03840223937636      2.77437057506591
  H   -3.52973160263209      4.89252542133770      2.12465316493471
  H   -2.81837348539956      4.35211247834580      3.67343278364216
  H   -4.29346131543528      3.57363843152599      3.02821649579312
  H   3.42572004149805     -0.15949789482137      2.72583747913702
  H   -1.21289011593861      1.08076427423295      2.87744696604907
  H   -2.43202375147507      1.39654932362883     -0.48750571344624
