34
Coordinates from ORCA-job 947optt
  C   -0.34303326421677      0.21148638731224      3.52332630817108
  C   -1.01823132494695      0.77706831794643      2.45506921072886
  C   1.00758530668636     -0.12241036926887      3.40716461674864
  C   -0.34289400788877      1.04930626168608      1.27328196303278
  C   1.03480587174205      0.75461367295592      1.11429809024516
  C   1.73194332964599      0.11910719954220      2.20542272000000
  C   3.08039730642645     -0.22365377989062      2.04905060839142
  C   1.74724481221970      1.04400136618802     -0.05797146290707
  C   3.10200358213016      0.70347241600560     -0.21654456022912
  C   3.78034637326996      0.04242835640447      0.86553209884551
  C   5.14931158201582     -0.29938189182503      0.66945610322247
  C   3.81462840881275      0.99622735412031     -1.39657028785187
  C   5.14792019805930      0.65318015176233     -1.54631196599121
  C   5.81801242797598      0.00274903759037     -0.51695991477609
  H   5.67080416516600      0.88862357296591     -2.46439567810223
  H   6.85841373218855     -0.27504625571351     -0.62070382859930
  H   1.26671154462738      1.57913813394111     -0.86729083731525
  H   3.28991243478090      1.50087911850352     -2.19995951616397
  N   -1.03366771339492      1.56203803760946      0.14499545454324
  C   5.87265505450995     -0.96758441406568      1.70326501861874
  N   6.47562850916954     -1.50714001561106      2.52268748009189
  C   1.65667774523874     -0.72325988387728      4.52525559464363
  N   2.16001134276754     -1.20647384758282      5.44191188411867
  C   -1.89138765404384      2.60402668578386      0.05500173937027
  O   -2.41489340418792      2.96784046984545     -0.97782728255130
  O   -2.10993944338346      3.20467312801617      1.24010918932260
  C   -2.97999070009356      4.32370851690569      1.18176362872431
  H   -2.57427391653440      5.09364481381870      0.52614095374903
  H   -3.05260039023702      4.69345707642785      2.20105353220315
  H   -3.96167487776593      4.03033630195146      0.81084846089049
  H   3.59719643212529     -0.70534062473765      2.87103574803195
  H   -0.86010989802592      0.00726189761967      4.45101801617047
  H   -2.07041288925337      1.00982970812268      2.53264143971453
  H   -0.80697067558564      1.16423309954696     -0.75411452509149
