29
Coordinates from ORCA-job 952optt
  C   -0.57208440044262      0.41551613871360     -0.84458989542393
  C   0.40852010295579      0.31866158946492     -1.87445457431289
  C   -0.26551334489555     -0.00162176863827      0.48547812406598
  C   1.71007613497968     -0.19709959319460     -1.58708345748057
  C   1.01918034213834     -0.52508141713835      0.79112071436658
  C   2.03628593635210     -0.61712104818679     -0.26805221998882
  C   -1.86144343370112      0.92222072066290     -1.11578618330584
  C   0.11833993112744      0.72547245618118     -3.19414210892464
  C   3.32300318801429     -1.10556702531546     -0.02536471445963
  C   2.69901558690600     -0.30039934594562     -2.59194298928083
  C   4.28022765283663     -1.19778609201699     -1.02243801921360
  C   3.95539753572705     -0.79014473630126     -2.31639557720256
  H   3.59372670333934     -1.42523878519038      0.97136122173062
  H   5.26660322746208     -1.58142233577924     -0.79558943871571
  H   2.44820350849288      0.01786358890197     -3.59611077621723
  H   4.69105581023574     -0.85596117437637     -3.10917632937220
  C   1.26651782887857     -0.93347503346555      2.10489521601355
  C   -1.22306609880486      0.09065741291752      1.52390876978660
  C   -0.95359995914930     -0.31445934341972      2.81149352973892
  C   0.31358211142737     -0.83673319590606      3.10208487105406
  H   2.23359137779367     -1.34098156760027      2.36548766389340
  H   0.54554973746483     -1.16427339305358      4.10917869690046
  H   -2.20033045857404      0.49433844227226      1.28488664614210
  C   -1.99309067868373     -0.20623959958276      3.89443180942672
  N   -2.92835411055664      1.33120026225076     -1.29604625850026
  N   -0.07788458367653      1.04774748198569     -4.28787898106502
  H   -2.91503837409887      0.23027905803063      3.51193002628917
  H   -1.63608221844345      0.41688401249081      4.71766715964009
  H   -2.22801905510508     -1.18925570876098      4.30928707441550
