32
Coordinates from ORCA-job 953optt
  C   -0.65609525333414      0.22227778962743     -0.87621009494951
  C   0.41717195853815      0.52326622423469     -1.75959559790714
  C   -0.38125169390601     -0.23246660473001      0.44954424583504
  C   1.73281627320756      0.04893931302361     -1.47032907659110
  C   0.97090985648183     -0.48405465243476      0.83438977250043
  C   1.97391315354706     -0.63132666731514     -0.23797289837199
  C   -1.99581842223335      0.48466553185645     -1.23938606600351
  C   0.18799833002426      1.17757106237076     -2.99055030929213
  C   3.10730529549761     -1.45970527669462     -0.14875333298163
  C   2.77591672998178      0.14499724599412     -2.41442704909003
  C   4.09692311001225     -1.38828544385577     -1.13000849415393
  C   3.95424816421306     -0.54139749007228     -2.22428938591778
  C   3.26523407181465     -2.54055380447356      0.89415353012571
  H   4.97006103374107     -2.02499101654370     -1.04270070550224
  H   2.61323977187943      0.72282872290528     -3.31533537403934
  H   4.74422839802401     -0.47094238630253     -2.96271359964878
  C   1.27780939079035     -0.49761613190408      2.20709834112030
  C   -1.39992555876354     -0.34156182377169      1.41844818025059
  C   -1.08373262153354     -0.52921780177364      2.74529505100961
  C   0.24778639243177     -0.54509805379700      3.14720689637836
  C   2.67804633734220     -0.32728910027188      2.74677790452961
  H   0.49961322419991     -0.56627003256105      4.20147706505162
  H   -2.43020047854796     -0.22118297063898      1.10845612879255
  H   -1.87420594665354     -0.59897377434075      3.48325666421784
  N   -3.10476037305967      0.68665749435080     -1.49648462927114
  N   0.04430131747411      1.70850029676071     -4.00748151190564
  H   3.38971457530422     -0.06077821149793      1.96834723838885
  H   3.04061672624060     -1.22540909337960      3.25040083879696
  H   2.66693026899036      0.47516112846117      3.48697691081734
  H   2.35594543087254     -2.69045544530725      1.47221283131453
  H   4.08243029076102     -2.33211784572811      1.58730548042577
  H   3.50431024666189     -3.47716118219069      0.38663104607077
