30
Coordinates from ORCA-job 957optt
  C   -0.59284236185547      0.36289768468980     -0.80247741284350
  C   0.42647167752568      0.48882977125655     -1.78652571372259
  C   -0.28685639484527     -0.14134839800057      0.49858647996407
  C   1.70541161250047     -0.09776305455980     -1.55992397100128
  C   1.04264081130470     -0.55604732262851      0.80668196084571
  C   1.99221489954067     -0.71073878106154     -0.30610079781707
  C   -1.91229931308597      0.79228050128559     -1.06787829651382
  C   0.16887292563284      1.10388107547158     -3.03166443842017
  C   3.14571946480046     -1.49988845609621     -0.21154639922510
  C   2.68512337843477     -0.14985508832656     -2.57841627686747
  C   4.07091371400821     -1.58274549508079     -1.23894157134078
  C   3.84852407563818     -0.86515729355096     -2.41563416968949
  H   3.30989852898514     -2.08772790322343      0.67931539834413
  H   4.94962141745662     -2.20475482829857     -1.12852916435169
  H   2.48333026729295      0.35786801174922     -3.51333450949572
  H   4.57364176294361     -0.89912011909829     -3.22012304439966
  C   1.37794994379250     -0.80197211886056      2.15623434969990
  C   -1.27148158652448     -0.19570047243864      1.50858960312211
  C   -0.94237123150257     -0.55016004378548      2.79732097161412
  C   0.37922595862646     -0.81230805973323      3.13484298269895
  C   2.77474134210679     -0.92771826906672      2.61410853374519
  H   0.65763896944683     -0.96853228850684      4.16842806746152
  H   -2.28873897446989      0.07635090170548      1.25777565818166
  H   -1.70964788521414     -0.57123950159756      3.56205688618009
  N   -3.00257110957630      1.13426700986767     -1.24454293891551
  N   -0.00148360124043      1.59751684750653     -4.06323174085006
  C   3.19439599012527     -1.66165889849553      3.64157893520634
  H   3.50134862833481     -0.33111753687038      2.07095867058092
  H   2.52144627581070     -2.31036563066991      4.18963990875674
  H   4.23072081400682     -1.64417224358236      3.95307203905242
