30
Coordinates from ORCA-job 958optt
  C   -0.60369832048984      0.40668515689775     -0.73619991971663
  C   0.39432509667615      0.29266284717878     -1.74041765033059
  C   -0.34532577062278      0.00485045310050      0.59983594194229
  C   1.68322397802207     -0.23397837668185     -1.41287012539054
  C   0.93171728643304     -0.52879871643802      0.95517743675101
  C   1.97133157449944     -0.64102331218377     -0.08278725899947
  C   -1.88450797821368      0.92524062121701     -1.05080464436604
  C   0.13880962602793      0.69102385336864     -3.07064297282165
  C   3.24831260482792     -1.14025382564327      0.19503116102713
  C   2.69266527362894     -0.35824575266686     -2.39401209618509
  C   4.22493576308959     -1.25357489307152     -0.77746252266534
  C   3.93585636087834     -0.85748465791854     -2.08470944468435
  H   3.49345253022306     -1.45133296370575      1.20074976186681
  H   5.20149106325585     -1.64491519551218     -0.52333562300632
  H   2.46760918892012     -0.04843413828294     -3.40686605280913
  H   4.68933065831254     -0.94061432584937     -2.85860715170451
  C   1.14754857577829     -0.92303391504860      2.26892876443179
  C   -1.32915790973548      0.11229105376895      1.61304380109975
  C   -1.07244559491185     -0.28562751899010      2.89957787999825
  C   0.17422691148310     -0.81633953145660      3.26775828457092
  H   2.10848106589039     -1.33313358023532      2.54526444155757
  C   0.39941040546085     -1.22412706828774      4.64744048963741
  H   -2.29884205625887      0.51694841240860      1.35252422815518
  H   -1.84681234122898     -0.19055406206872      3.65366801906212
  N   -2.93891284358774      1.34260137507263     -1.26820442444007
  N   -0.02736693767843      1.00518479223473     -4.17103667529542
  C   1.50983220126487     -1.73503775243542      5.18914005637568
  H   -0.45918112363334     -1.08335460328672      5.30037731843511
  H   2.41100356455378     -1.90657671918854      4.61410588481608
  H   1.54317714713469     -1.99702765629576      6.23794309268803
