34
Coordinates from ORCA-job 960optt
  C   -0.19210463034359     -0.23193538177401     -0.57873622317810
  C   0.88634154603052      0.12069838167509     -1.43733008564026
  C   0.06944365778082     -0.59310280439973      0.77843265096372
  C   2.22396992153371     -0.20746716695491     -1.07040867503698
  C   1.41805066519895     -0.71156183229443      1.21890283760126
  C   2.46956477657245     -0.80979490684775      0.19773525672359
  C   -1.53434408572941     -0.11168840192289     -1.00224339708738
  C   0.65282534930715      0.69979729281415     -2.70523551784415
  C   3.69381205241217     -1.48599218905964      0.38914514818071
  C   3.30939566454572     -0.02050344954979     -1.95684742879070
  C   4.74065313061432     -1.29562482942127     -0.51240084294132
  C   4.55380330097034     -0.52314504108734     -1.65756522500314
  H   5.68344626839275     -1.80011965256277     -0.33933522184151
  H   3.13523244318064      0.50163318114981     -2.88919661730890
  H   5.37649225528759     -0.36841785634071     -2.34538912628571
  C   1.68610354707746     -0.66950820437396      2.60347743811272
  C   -0.96784537723614     -0.75601719158783      1.72102548386080
  C   -0.68035123696652     -0.87850654897223      3.06274060678728
  C   0.63195205032822     -0.77589066700097      3.51293471748910
  H   0.83714856867195     -0.71985978313115      4.57354138114983
  H   -1.99411651718289     -0.73295183765532      1.37678758382271
  H   -1.48828597413455     -0.98264849940580      3.77712826573062
  N   -2.64587509776352     -0.02778002024270     -1.30839673365306
  N   0.50536054800601      1.17574209065917     -3.74807240876314
  C   3.04030971530779     -0.38948613717309      3.10834410022257
  C   3.51025586369740     -0.69066373496188      4.31587832935491
  H   3.68972438992137      0.14207858981908      2.41937667743034
  H   2.93213086731188     -1.26372854209284      5.03086706666181
  H   4.50481751491175     -0.38736419581627      4.61587207363232
  C   3.90203581111093     -2.53633892475331      1.41006046867427
  C   3.01453096540642     -3.46743457126836      1.73486664407749
  H   4.89555321658263     -2.57802695141251      1.84902802372360
  H   2.01517797322027     -3.46506984128878      1.31622458545127
  H   3.25789085597531     -4.24314037276497      2.44951816372340
