44
Coordinates from ORCA-job 964optt
  C   0.08826205979629     -0.29782010566225     -0.26383295140035
  C   1.15519902253096      0.22387254058007     -1.04786893740326
  C   0.35634139203796     -0.82202150385744      1.03744892124922
  C   2.50407009147950     -0.11327787542322     -0.72209363066731
  C   1.70635697109747     -0.93151276790412      1.48332934902716
  C   2.77076317827433     -0.87098950579212      0.45610593170305
  C   -1.25428186723593     -0.18323534108544     -0.68698083634001
  C   0.90510415705936      0.95882256011373     -2.22771051915531
  C   3.98889551666010     -1.57992594988248      0.52830293662651
  C   3.57128002144418      0.19483847122961     -1.59397396494802
  C   5.00303860666869     -1.30030863092576     -0.38440668725152
  C   4.81085095718384     -0.36542557520732     -1.40065218539295
  H   5.94234470370996     -1.83500900682611     -0.32447289995584
  H   3.38104265301349      0.83756382587222     -2.44416563780751
  C   1.94351971807592     -0.99806647153812      2.87318393308436
  C   -0.68868253850458     -1.13557161982350      1.93382920918462
  C   -0.41848194730294     -1.37954250700649      3.25873865717026
  C   0.88278729520674     -1.24677917666432      3.74096895773406
  H   1.06371931520128     -1.30854360354876      4.80651695185042
  H   -1.70805294845389     -1.12858099752551      1.56917080635062
  N   -2.36580393481623     -0.11131539156587     -0.99728025746675
  N   0.74578347411726      1.56533776076925     -3.19917083232140
  H   5.62195554108536     -0.12919961544961     -2.07929182556969
  H   -1.22774065928822     -1.61135565941460      3.94109542348539
  C   3.28145027005777     -0.60437971368783      3.48514786987637
  C   3.18631448245540      0.84788515261744      3.96990990138149
  H   4.14418525857444      1.18166952177897      4.37691515970501
  H   2.42779754644358      0.94091425126979      4.75012256241994
  H   2.90856972734366      1.50846857867365      3.14793020168239
  C   3.73990933701522     -1.50590696039148      4.63177890078716
  H   4.04228839567120     -0.62188072484352      2.70927142283747
  H   4.74983817804275     -1.23132654917783      4.94514817950837
  H   3.74840519984213     -2.55804683766630      4.34447155061003
  H   3.08900545293022     -1.40046813694866      5.50168733725936
  C   4.16761877646782     -2.78827750069643      1.43804219254703
  C   3.92931253103666     -4.05872664660513      0.61171934326844
  H   4.00167512732081     -4.94803600719352      1.24295229488323
  H   4.67089268057822     -4.13973407584236     -0.18596376831664
  H   2.94028004527260     -4.03736822552930      0.15284836232468
  C   5.53153111993113     -2.86418958985536      2.12474800226093
  H   3.39747005304153     -2.76951734001245      2.20459805750935
  H   5.54795546240276     -3.69182799913235      2.83765107457374
  H   5.76753121322004     -1.94653890691580      2.66497540968654
  H   6.32879836331083     -3.04226614330324      1.40078603340922
