28
Coordinates from ORCA-job 985optt
  C   -0.28989570152584      0.07295995630323     -0.55506656177976
  C   0.75453009895346      0.27538141434185     -1.49714993888579
  C   0.01867401775491     -0.32720268541148      0.78536382691901
  C   2.06864902812612     -0.19072625684813     -1.22384024345605
  C   1.36444958579209     -0.65064235804722      1.13694783362463
  C   2.35186720830539     -0.79252490483065      0.04442433443226
  C   -1.62757699742674      0.37393694104926     -0.88905415590289
  C   0.48858396192483      0.85195714782027     -2.76097513965212
  C   3.53550002568890     -1.53556246464297      0.10882145797907
  C   3.07493205554559     -0.14047928405394     -2.21790436536465
  C   4.50369623360187     -1.52347230183763     -0.88684189459351
  C   4.27587517172622     -0.78037461432931     -2.04138593617266
  H   2.86163930831753      0.37766889953969     -3.14315921132326
  C   1.66420287243494     -0.70852059612833      2.51617490812317
  C   -0.98393333256716     -0.30835545532146      1.77474995722743
  C   -0.66201594056104     -0.48358497980829      3.10063059425303
  C   0.66226015668574     -0.64956573056065      3.47928050675915
  H   0.95804608427276     -0.72290390549825      4.51672955023443
  H   -2.00389609130218     -0.10432979552964      1.47787785540687
  N   -2.73313270658204      0.60950587460163     -1.13345987566455
  N   0.31029472298083      1.31906747322277     -3.80268443943477
  H   5.03131934546118     -0.74210527254039     -2.81636422713718
  H   -1.43974859750916     -0.45360122217187      3.85440376050250
  O   3.74631491950058     -2.36336360584112      1.20055960983085
  O   2.93131863136396     -0.73621762702127      3.01779763220725
  H   5.41426239991595     -2.09795530701692     -0.75750902497353
  H   4.56935994979703     -2.84120190638508      1.06318626106576
  H   3.48723358932417     -1.29769743305406      2.45597692577531
