32
Coordinates from ORCA-job 999optt
  C   -0.03912252329470      0.29948590406461     -0.33075948771357
  C   0.82878026640463     -0.10915479988095     -1.37759746813929
  C   0.24257029346321     -0.08000427084108      1.01203624189850
  C   2.11804254909859     -0.62786071404419     -1.06817513814611
  C   1.43954298403642     -0.79607514843579      1.31315075574683
  C   2.49991229660707     -0.82232915774380      0.29309514073012
  C   -1.23808780495859      0.99526572016713     -0.60726584532365
  C   0.47438539516315      0.07760465734269     -2.73321616768318
  C   3.86971289903594     -1.03510884652108      0.55187155533220
  C   3.05395847155910     -0.90440173221683     -2.09273738173652
  C   4.77514998121531     -1.28397042535826     -0.47505219850930
  C   4.34829905823295     -1.25553846142737     -1.79908023929022
  H   2.73167247608207     -0.81136505742944     -3.12199853046979
  C   1.51474876693965     -1.41831046431485      2.57611240832420
  C   -0.67783332317357      0.19140416675159      2.05207982061059
  C   -0.49127027748298     -0.30927365108906      3.31676783588959
  C   0.58541466319385     -1.15197259191961      3.57670912189944
  H   0.70743807500494     -1.63158120022832      4.53749282858008
  H   -1.55111212062339      0.78856986621502      1.82254719524065
  N   -2.22705706819251      1.56347446798481     -0.79177374163256
  N   0.22274887235502      0.21490487192102     -3.85247947166758
  H   5.04787437218835     -1.46346101946675     -2.59902600127663
  H   -1.20783425433058     -0.08813254753030      4.09794877712249
  C   4.51788144194408     -0.93934114850922      1.88828485789281
  C   2.49839990766343     -2.46792443372038      2.95689453683202
  H   5.80806020222246     -1.47274761217024     -0.21921387011522
  O   5.45455361472902     -1.61130054633211      2.24327262348708
  O   4.01626378316207      0.03250484785213      2.67002164084896
  O   2.95525594368451     -2.60902462451147      4.06415090114761
  O   2.79428944322285     -3.32289285305931      1.96248364509428
  H   4.43833903112013     -0.06553143478583      3.53598316109811
  H   3.50671258372744     -3.89054176076278      2.29097249392800
