26
Coordinates from ORCA-job 10008optt
  Br  1.14759520986602      0.42112133233839      0.04879236744128
  C   3.01179283801457      0.14755036908274      0.09254771210084
  C   3.58833092830810     -1.13141347634097      0.08578202427898
  C   2.84016635458959     -2.40986864265361      0.02311234529998
  O   1.64751105793430     -2.50496952782043      0.17657154594983
  C   3.68293337684125     -3.63379866011797     -0.28307172780884
  C   5.01156305197805     -3.57383618014568      0.44608913751910
  N   5.68096841455244     -2.34114567124232      0.08545809594373
  C   5.00465543491773     -1.16176501750223      0.09072478250657
  N   5.77464587256397     -0.06824629529431      0.09847795565173
  C   5.18263519002711      1.11522365012830      0.10498973746166
  N   5.97220242666019      2.24184218705795      0.11908848466983
  C   7.34893384615209      2.33530190843061      0.09376101620206
  N   8.24919704267763      1.44850489163201      0.02514755464211
  C   7.81045159080585      3.76837111979099      0.15717733477430
  O   7.04471832694203      4.68892244301947      0.22645122262729
  C   3.78999998307784      1.28005259059029      0.10560225219320
  H   3.86211854177939     -3.65092252652207     -1.36261799812044
  H   3.10848532341807     -4.51601620080314     -0.00982882769728
  H   5.64651433394701     -4.41192657750659      0.16462410555752
  H   4.84423746795631     -3.62264551817797      1.52948546611524
  H   6.66671574314300     -2.25078221412776      0.27548609072527
  H   5.50792346706118      3.14049718021664      0.16036184464975
  H   7.83902348516344      0.51745458434034     -0.01129320400311
  H   8.90441725576696      3.88395827981553      0.13412999887921
  H   3.34626343585573      2.26453597181178      0.10695068244017
