25
Coordinates from ORCA-job 10012optt
  Br  1.18362676442918     -0.28064440190392      0.25321444605997
  C   3.04713283833687     -0.10359219625901      0.14339366122719
  C   3.68870600357171      1.09518551138227      0.25462781400875
  C   3.34994845088108      2.45481002781558      0.44998817193123
  O   2.05498284807987      2.87303054197126      0.55943785233074
  C   1.91537017140869      4.26122471190172      0.67572346581850
  C   0.48720812984034      4.58947555858742      0.69532856541152
  N   -0.61777839343778      4.88628982455924      0.71318223124236
  C   4.52009630439075      3.18757335961078      0.48535029164280
  C   5.65383533993994      2.33450689661848      0.31474023301389
  C   5.15603357110571      1.06525142953791      0.16883422065502
  N   5.76238388446457     -0.13204244903655     -0.02923285296777
  C   7.21991432780570     -0.19885755640208     -0.11126489558458
  C   7.85543940332540      0.01512040726128      1.18729355201831
  C   8.38449341401404      0.18331428310974      2.24623537142367
  N   5.12640254080807     -1.27152178653349     -0.14341211882084
  C   3.81503710508724     -1.26898102641108     -0.06155272281366
  H   2.38286212784344      4.77689552881787     -0.17084809584500
  H   2.37395221243325      4.63081900748316      1.59999047854177
  H   4.59020302435409      4.25621426299997      0.62479903718345
  H   6.68669539587158      2.63876837970168      0.33762172564348
  H   7.55265596792827      0.56062705921749     -0.82251562169145
  H   7.46176671734134     -1.18489242560801     -0.50130780300965
  H   8.84555611310595      0.32895670630408      3.19423473468723
  H   3.34047573707063     -2.23353165472583     -0.16586174210692
