20
Coordinates from ORCA-job 10013optt
  Br  0.90556069763562      0.29642888221135     -0.19657153923196
  C   2.77260753037742      0.16758784670493     -0.02796387816980
  C   3.50040342678613     -0.99131750800897     -0.03563562348073
  C   2.80638577736245     -2.30692033706088     -0.22612535924490
  O   1.62926924982573     -2.41341578512025     -0.49730592131517
  C   3.64300772594936     -3.49470408991237     -0.06230736829609
  C   2.98561910301572     -4.75762302677276     -0.16175830368249
  N   2.46854025321079     -5.77906207255652     -0.24031337714154
  C   4.99532518429490     -3.42472211088890      0.14728349476459
  C   5.73819401156893     -4.63340664272215      0.28165897648805
  C   6.32005626222128     -5.67425237781051      0.39081326393856
  C   5.64834785202137     -2.15302798606810      0.22462759809395
  Br  7.52836954966204     -2.18160248692675      0.45338938739477
  C   4.95494343743266     -0.97135257512962      0.15357360634983
  C   5.64907381689855      0.28966099112073      0.25959955447900
  C   5.06686957246064      1.49283390509241      0.26930102988883
  S   3.37874732990331      1.76149857008406      0.14687918748113
  H   6.83564428428151     -6.60047028245561      0.48764396098271
  H   6.72445629619164      0.25834775749841      0.34949050541800
  H   5.64557863889989      2.40251932872151      0.36072080528325
