22
Coordinates from ORCA-job 10010optt
  Br  1.25335876130116      0.59715182943035      0.53153492779241
  C   2.96164408620999      0.04130730970998      0.04716963803141
  C   3.46263550356607     -1.20235986714666      0.21270196740824
  C   2.75590303996776     -2.36797742586992      0.83736251319718
  O   1.63214152875579     -2.26493116655424      1.28513151130946
  C   3.53439680945284     -3.59014711923078      0.84471586475030
  C   4.77945989637739     -3.61750019698046      0.32631893855632
  N   5.44327921923597     -2.53911890773028     -0.22146474211300
  C   4.81505462596587     -1.42882978382916     -0.26133023282209
  O   5.51641560614659     -0.39662891234330     -0.80072473326288
  N   5.00239575298957      0.84593429373013     -0.94082445320378
  C   3.80187233558556      1.05069852052626     -0.55004590383603
  C   5.62384475024753     -4.88611278791337      0.27752661030781
  C   5.09265605413904     -5.98238240275536      1.09015725437930
  C   4.66043347593285     -6.87333264438465      1.75998056426569
  C   5.79960962250985     -5.29790017647028     -1.12246084454758
  C   5.93033345400250     -5.62570266969897     -2.26439130091187
  H   3.08052902478324     -4.47237927665308      1.27144544765248
  H   3.43863278325988      2.06026789294970     -0.68814492142421
  H   6.60915141074000     -4.60677646950512      0.66653887617412
  H   4.27626764125897     -7.67062683071455      2.35065631389378
  H   6.05098461757150     -5.91865320856618     -3.27985329559707
