26
Coordinates from ORCA-job 10018optt
  Br  0.76917312913066      0.51214633264844     -0.72403627185531
  C   2.62355401047982      0.34669330771976     -0.56074661462371
  C   3.26940429561940     -0.82717689225895     -0.60152766457188
  C   2.57842774442541     -2.16517344947537     -0.70671613308734
  O   2.21853296342628     -2.63321881096160      0.58112098341291
  C   3.10738827668473     -3.50989726593795      1.22097707643926
  C   4.50933708793585     -2.92013385233324      1.48666847349056
  N   5.37914295266521     -2.97402179197051      0.32049853465141
  C   5.54504089776697     -2.01328903311781     -0.64163641197852
  N   6.28247949819684     -2.08104755253216     -1.67181278850318
  C   4.72078618689277     -0.76938434305113     -0.46934736523510
  N   5.39899287325613      0.28510849621902     -0.23837397298329
  O   4.71551024674099      1.46747243080726     -0.14031313438519
  C   3.36510445572040      1.59926855906804     -0.37016683843927
  N   2.82937228699369      2.73541301514214     -0.38017688715132
  C   5.14361120837955     -3.66018655852626      2.58041396739106
  C   5.64777550946215     -4.30716006496743      3.45141519368243
  H   3.21282892532428     -2.88669696909378     -1.22866796256297
  H   1.65318865700445     -2.04963101577948     -1.26638892750157
  H   3.23338423035420     -4.43434528045636      0.64334938094556
  H   2.63906810508840     -3.75322131881008      2.17326745024501
  H   4.39141443375587     -1.87645242153175      1.79224874627221
  H   5.88902516307128     -3.83508705924602      0.19237727966867
  H   6.80224993857878     -2.95800840410862     -1.71483686046287
  H   3.52105731460837      3.46745153647193     -0.22685755925296
  H   6.10414960843745     -4.86542159391804      4.23426830639539
