22
Coordinates from ORCA-job 10020optt
  Br  1.02299389053028     -0.02778621460780      0.07292493614603
  C   2.90985280565867     -0.06116026345992      0.06570895642796
  C   3.58178911066494     -1.27802175709649      0.02532766284625
  C   2.85272953531057     -2.59439604613972     -0.00057396944282
  O   3.71271262089229     -3.70640435018094     -0.20932957348735
  C   4.90088618541487     -3.66270461305532      0.52501503098806
  C   4.63490604360720     -3.46298311549574      1.97511500308732
  N   4.40040679703330     -3.26169805374390      3.07681997868076
  C   5.59297477002154     -4.95270098175017      0.35094658288076
  N   6.17453231507227     -5.92929894636474      0.22993388493675
  C   5.78668185465927     -2.49254280461501      0.02198712200544
  C   6.25565638216510     -2.76116576699818     -1.33951635088803
  N   6.60849657540644     -2.95111399324360     -2.41161085422259
  C   4.97084812183443     -1.21090771140804      0.04782106656967
  N   5.67075246634267     -0.08734925718178      0.09066746403436
  C   5.00193297507011      1.05720587230151      0.10956199802298
  C   3.61484984926082      1.12629385346171      0.10023279703954
  H   2.14167674874471     -2.62462748318947     -0.82448294903965
  H   2.29776393459759     -2.72439971026978      0.93547509161114
  H   6.65243391330258     -2.36939690895855      0.67525890785502
  H   5.59451561142080      1.96385112687753      0.13827297706252
  H   3.10260749298951      2.07730712511839      0.12344423688589
