26
Coordinates from ORCA-job 10029optt
  Br  2.62387320465597      0.62493707695035     -3.61244776724831
  C   2.91089076277443      0.75376284307519     -1.75662417240214
  C   3.62563596223302      1.84648717331487     -1.19936715105381
  C   3.44217051579743      3.24525298608585     -1.71995426070593
  O   2.08203402159130      3.58535828235695     -1.49238160728010
  C   1.70678725524683      4.01223601139592     -0.19080142592741
  C   0.62788617489448      3.12951215916509      0.44548889803612
  N   1.19864081074480      1.94692992627855      1.04932853582450
  C   0.61619731207980      0.69739941725909      1.09125022420994
  N   -0.59790163617444      0.37918539831741      0.94156550008015
  N   1.59779456791064     -0.34188284259883      1.24233943367048
  C   2.64647322336190     -0.06674158174299      0.33121579722600
  N   2.38158213058940     -0.12951243765609     -0.96981365124456
  C   3.77324047022241      0.64514674571939      0.73936286040975
  N   4.16978250471426      1.67339532524151     -0.01891969662447
  C   4.35086731277053      0.48849104763404      2.04444998190430
  N   4.81338739059383      0.36085738276316      3.08602204946161
  H   3.59748902665433      3.31729041485357     -2.79417616503842
  H   4.12411111556005      3.92063951563693     -1.19933962143532
  H   1.30488245971459      5.02358523568251     -0.28887960248458
  H   2.58194134639805      4.06239887004260      0.46674205035928
  H   0.07382808938391      3.73571140247968      1.17117431023237
  H   -0.07154490565100      2.81560379728163     -0.33141032228309
  H   2.00943419379608      2.08393872286848      1.63168396929994
  H   -1.20407352028614      1.19487538689887      0.94084415878345
  H   1.13559021042349     -1.23485825930376      1.10664767423026
