25
Coordinates from ORCA-job 10022optt
  Br  1.07766615186535     -0.43989739041708     -1.11940267371087
  C   2.88287758019095     -0.31975512870533     -0.58589193996239
  C   3.52980403846248     -1.33036830186068      0.02741579296315
  C   2.84966482163591     -2.56983693520982      0.56804155363639
  O   2.99562977806310     -3.73061560711877     -0.22248352235716
  C   4.23826544752662     -4.37066473973884     -0.07751114277272
  C   5.38840779262573     -3.48034006478974     -0.51836606423110
  N   5.66770976898819     -2.39111934250738      0.41790269118689
  C   6.65480302172115     -2.52919083640565      1.38349999807581
  N   7.41879194821891     -3.51389709575804      1.60474192403298
  C   6.75686723715713     -1.42777142300488      2.34085898527845
  N   6.84287387285872     -0.62164685911709      3.14889429581712
  C   4.97506769939737     -1.18216199638511      0.20894192280544
  N   5.66212139192127     -0.10782993007996      0.16910008470245
  C   5.05601678717122      1.13192882206440      0.02782929252095
  N   5.50345184240955      2.22936101713439      0.44561005988014
  S   3.57093837989114      1.21531928920223     -0.96972039862198
  H   1.78156232394060     -2.38765643061489      0.64501970462268
  H   3.23834579228624     -2.75903495983073      1.57654520118866
  H   4.20019466857742     -5.25947323987664     -0.70706592878483
  H   4.39119018870128     -4.68362435046575      0.96402699047840
  H   5.14748158652486     -3.03836145983171     -1.48613021498569
  H   6.29735409623725     -4.06333537432242     -0.65927404840499
  H   7.30333831558569     -4.27943901474698      0.94728107128808
  H   6.39657546804174      2.08241135238654      0.91913636535411
