27
Coordinates from ORCA-job 10026optt
  Br  0.87541854506414     -0.14339355371924     -0.13338109449374
  C   2.76502037048378     -0.09128461428798     -0.03767359952261
  C   3.48793546209669     -1.22389896465361      0.00993031676090
  C   2.80360436085718     -2.57676309990406     -0.00023593655348
  O   3.68517628085457     -3.62491783286259     -0.31745409103099
  C   4.80098846374592     -3.64392223210330      0.52820875006053
  C   5.73346700210570     -2.46848077266953      0.19173655780556
  N   6.86380564519659     -2.43887149205125      1.07279760626948
  C   6.79418431112523     -2.06995954808690      2.39252396298106
  N   7.73935185888061     -1.96122164157442      3.22739569000734
  C   6.26023224133259     -2.70220745499731     -1.22631904759790
  O   7.42865695712947     -2.76332601185539     -1.48070279989291
  C   4.93732548589263     -1.15211249452502      0.13975073848228
  C   5.63344291024696     -0.00103552056506      0.19173463888893
  C   5.09615769225096      1.34825337127868      0.11638913344795
  N   5.74120880293836      2.43950903004448      0.12558523055433
  S   3.33605147285324      1.53670905892340      0.00259475050393
  H   2.01641655332461     -2.59889615416871     -0.75027132389181
  H   2.34047057354334     -2.76155456558622      0.97922390823995
  H   5.32654621533404     -4.58613933047205      0.37364540551786
  H   4.50335918104907     -3.58360876515552      1.58319343982230
  H   7.76526033744165     -2.57496555357850      0.63417432053705
  H   5.77937809740122     -1.84837995845720      2.72607800322093
  H   8.64398562941713     -2.18958838490926      2.81302215260503
  H   5.48264737359000     -2.82147811129188     -1.99682908107617
  H   6.71217301351722     -0.05368135739956      0.30166043194104
  H   6.74373516232699      2.27621595462801      0.20522193641313
