21
Coordinates from ORCA-job 10025optt
  Br  1.46104984555343      0.54439690963243      0.07048543557214
  C   3.24549646311431      0.03253226462061      0.05867048059943
  C   3.67182926832092     -1.26881435334232      0.06093026227623
  C   2.82879842889359     -2.50676568855929      0.07510791332903
  O   1.61292696854490     -2.46180496945780      0.08636314525547
  C   3.60547697226772     -3.71458257883214      0.07309098281293
  C   4.97541142616126     -3.69982363956874      0.05691545449553
  N   5.65769199297883     -4.90123134057381      0.05394557343704
  C   7.03090651659383     -5.13845594643652      0.02367479517855
  N   8.01064396920771     -4.34808127121942     -0.00509294448900
  C   7.30033184831934     -6.57711090789285      0.02648873070195
  N   7.46430545675969     -7.71014342613299      0.02933444355056
  N   5.74630933540535     -2.57071925577583      0.04404312162989
  C   5.08954997120130     -1.45009554647925      0.04706831477803
  N   5.81900421065364     -0.29253720548942      0.03599660533995
  N   5.34686545982277      0.93137558385970      0.03652644010683
  N   4.09301288458001      1.11348943208286      0.04723699540565
  H   3.06072911669831     -4.64885430011884      0.08252530359248
  H   5.07605515323051     -5.72504090934531      0.06961066012484
  H   7.68829505777730     -3.38383311481411     -0.00361106711541
  H   6.83030965391521     -0.35689973615696      0.02668935341788
