23
Coordinates from ORCA-job 10038optt
  Br  1.19735330710840      0.15672253038061     -0.41565481838189
  C   3.03005473166394     -0.05264080275527     -0.16051843454105
  C   3.69050220525232     -1.24598959960685      0.01627782390212
  C   3.03261606607949     -2.55054416477634      0.01806445364442
  O   1.82892483861962     -2.73290868476475     -0.11804380703372
  C   3.95647583744850     -3.68480672946190      0.20431898388680
  C   3.32967268063299     -5.05488340453263      0.16960765022128
  N   2.68135959756479     -5.32307613822935     -1.09632076081057
  C   3.26084705485465     -6.02308668219849     -2.09988188897903
  O   2.80103846320915     -6.15424141300718     -3.20878593107818
  N   5.23171461149699     -3.56937553590118      0.37657706761166
  C   5.82957731226953     -2.34183833185326      0.38301754361470
  C   5.12515346275167     -1.19088254126253      0.20443633909885
  C   5.70316269690356      0.13595726508423      0.18078657646096
  Br  7.55665979741130      0.35862659146597      0.41352741084063
  N   5.04401748930480      1.21811462544216      0.00726112895070
  N   3.70963204209254      1.10012148778285     -0.16103735259567
  H   2.59289251850945     -5.14211758635362      0.97075369390042
  H   4.11326590117450     -5.79288243433329      0.33377834779437
  H   1.84203911213977     -4.80161219120293     -1.31019715000380
  H   4.21393971359993     -6.48789862776063     -1.79190771788866
  H   6.89875480494269     -2.33161443492300      0.53267338203231
  H   3.22634575496938      1.97585680276739     -0.29673254064664
