29
Coordinates from ORCA-job 10039optt
  Br  2.71146225952548     -0.79061670198490     -3.17936127180579
  C   3.08451231574360     -0.01144214056583     -1.50947783083569
  C   3.14963842237078      1.32868932354231     -1.32109873131494
  C   2.75121990896484      2.34109292947773     -2.37021186505833
  O   1.37347167562025      2.66660267094104     -2.26416574781210
  C   1.01047235567682      3.51573496044773     -1.19739008506028
  C   0.31412716598320      2.77749761641507     -0.03721945705531
  N   0.44705870249632      3.53064751411503      1.20790140401470
  C   1.42280882667859      3.28487656945236      2.12847709595570
  O   2.01587956319923      4.12641584363910      2.75237431445959
  O   1.62221924586878      1.95018754464372      2.31366560798889
  C   2.98895048391781      1.53994097218437      2.41694863165446
  C   3.32785415336907      1.00879655380227      1.05203387326435
  N   3.23139000996374     -0.33329108156834      0.84746917029954
  C   3.25389368629802     -0.96301907840823     -0.40454961007245
  N   3.33644632682801     -2.22049472281924     -0.57909482487094
  C   3.40703046762927      1.84042888721093     -0.00637733985393
  H   2.88934341511214      1.94568827416363     -3.37218020801824
  H   3.35755609005090      3.24617141712239     -2.25701313711083
  H   0.33202873922225      4.26945292027398     -1.60666286622441
  H   1.88537375246486      4.04602354320204     -0.80830271993271
  H   0.75939945293647      1.79703067264896      0.10586366091078
  H   -0.74138674878115      2.63003842783481     -0.26453333407703
  H   0.23947275620281      4.51809523139235      1.15239137219012
  H   3.04612429864158      0.77519073090642      3.19038484293690
  H   3.61086789901669      2.38777107685088      2.70010146063987
  H   3.13896051292244     -0.93901199318995      1.64950737780344
  H   3.43054760540775     -2.72988953670390      0.29635963077215
  H   3.47627665666939      2.90639157497324      0.16316058621250
