26
Coordinates from ORCA-job 10035optt
  Br  1.01303483859006      0.29525979616256      0.16567558504133
  C   2.89128005876266      0.08706280677040      0.07898208953052
  C   3.50589628747624     -1.02954746521768     -0.37024419321685
  C   2.71367711462606     -2.18880675408514     -0.93749925854875
  O   3.04440018281951     -3.48026866341636     -0.42344696868803
  C   3.15313817031539     -3.59222644988496      0.96553369097452
  C   2.04531984714776     -2.95350426112841      1.69539381963536
  N   1.16093379049318     -2.45564792545026      2.22534459417754
  C   4.52591649886944     -3.12483130798004      1.49665344201335
  O   4.64745155996200     -2.74304996277475      2.62391664071967
  C   5.69305784189606     -3.28520360255391      0.54168304282571
  C   5.61597052190325     -2.40602067200295     -0.72875927980722
  C   4.96927845384233     -1.07991295817590     -0.41159821018491
  C   5.77212572014897     -0.04915747399854     -0.09073751774876
  C   5.36435289297453      1.27005575353915      0.35718509242499
  N   6.10245118843271      2.26741682460959      0.62064822540136
  S   3.63594842120140      1.54790321716920      0.61843359785720
  H   2.90278706423202     -2.27746303055211     -2.00875782386450
  H   1.64924511031563     -2.01706472991129     -0.79317909971962
  H   3.11202821468301     -4.66552530724949      1.18145255174318
  H   5.75715586579043     -4.33739198043348      0.25171871061295
  H   6.57822646974830     -3.02666773034106      1.12115883030196
  H   5.07793196420461     -2.92978902814757     -1.51470121919102
  H   6.63081160043683     -2.23301850338685     -1.08436716449343
  H   6.84725450670063     -0.18956232056235     -0.15202267121072
  H   7.08632581442691      2.04396172900222      0.47753349341418
