21
Coordinates from ORCA-job 10032optt
  Br  1.15157099394649      0.38794154009549      0.14442104185922
  C   2.97986409716483      0.06067713054428      0.08571071694620
  C   3.54833497660318     -1.16667519634309      0.03436120238079
  C   2.76946396163843     -2.45621707147645     -0.07186229244707
  O   1.57684201315187     -2.51406798103232      0.09614941633275
  C   3.56304474609768     -3.64247927522647     -0.39508713511680
  C   4.89181505498714     -3.64774191047368     -0.28327284956444
  N   5.62125883597258     -2.50646898655000      0.03385289905654
  C   6.88301701631786     -2.68920310785010      0.62869913106092
  O   7.42081229276587     -3.75341908597536      0.68109976214103
  C   5.00326870930764     -1.25174809597984     -0.05415787551701
  C   5.70350563671998     -0.12390073173492     -0.29635689429486
  O   5.13082254752302      1.10114438338432     -0.26762765095879
  C   3.80840241150108      1.28521608530923      0.07923395932289
  N   3.36412852414744      2.43199882617718      0.31670699825106
  C   7.07700582858803     -0.07682960010902     -0.68036822039323
  N   8.17437396594781     -0.05014984741297     -1.01530488495161
  H   3.02161772159402     -4.54930238795257     -0.61891955180462
  H   5.50146746272750     -4.53571544793632     -0.37300515827921
  H   7.29288534253350     -1.76946919411498      1.05952350804867
  H   4.09449786076399      3.13840995465763      0.25220387792755
