18
Coordinates from ORCA-job 10034optt
  Br  1.30919047335686      0.48165068967227      0.00883300090211
  C   3.15101783253039      0.15491186964925     -0.02884904710301
  C   3.71223754910185     -1.09608457834588     -0.05250789036137
  C   2.90194577667996     -2.34648112116670     -0.06732142501679
  O   1.69773602540641     -2.37717475321152     -0.07715677042057
  C   3.69274641520828     -3.59088641507564     -0.07058998857340
  C   3.00591937562481     -4.83988737592411     -0.08356953834581
  N   2.46593203997231     -5.85113599328652     -0.09456571487157
  C   5.04072110814156     -3.55439564795649     -0.05995417283770
  O   5.74226666395195     -2.40639483009054     -0.05514038944973
  C   5.15627685989538     -1.17786518702250     -0.06088325525933
  N   6.04122248816429     -0.25323789542025     -0.07131579886595
  C   5.76573335948788      1.07924062503659     -0.07742482559980
  O   6.56882567107276      1.95959107564668     -0.10761706482906
  S   4.02436558101205      1.61581564234017     -0.02624646857356
  C   5.86999505563383     -4.70706875715644     -0.05335040548075
  C   6.54731686196038     -5.69351458470032     -0.04783252788028
  H   7.14855086279899     -6.57308276298802     -0.04250771743342
