23
Coordinates from ORCA-job 10049optt
  Br  1.13041760372932      0.01485182584596     -0.42246077001089
  C   2.99818449072394      0.05050427582772     -0.17297883578393
  C   3.67038580865841     -1.08955505273137      0.06748553349011
  C   3.01025359417868     -2.43852311206540      0.07315310453135
  O   2.59389420881790     -2.71272119635955      1.37028195644186
  C   1.79246149370458     -3.87434429023499      1.45482559816254
  C   1.29217328703539     -4.00080981145160      2.82452225784896
  N   0.88189685991035     -4.12972706959718      3.88463113213275
  O   3.92032056544652     -3.42051604528102     -0.39799387159623
  C   5.12316716856952     -3.51303304370026      0.23047356590725
  N   5.78030723203446     -4.56479140875895      0.36252719853899
  O   5.62448863222205     -2.35336388233249      0.70533274654226
  C   5.08372527399363     -1.14377314437539      0.33417046353149
  C   5.89142678303121     -0.08095865183151      0.31971077321292
  S   5.35236085113905      1.51916825263739     -0.00513207904991
  C   3.60030527323857      1.39249457958391     -0.25268417488821
  N   2.89748435193545      2.41559745129733     -0.49963940516204
  H   2.17908545710724     -2.48569991729676     -0.63116309005661
  H   2.36765684481911     -4.76872127841663      1.20247326672225
  H   0.93816829472039     -3.80105158135160      0.77337378998760
  H   5.26341910333654     -5.35830134953046     -0.00358490330049
  H   6.94570106821524     -0.17912746728901      0.53961896362536
  H   3.43671575343239      3.27840191741186     -0.53194322082737
