28
Coordinates from ORCA-job 10040optt
  Br  2.73602871869287      1.75712111724975      0.83363370799715
  C   3.95293419603139      3.14201637484344      0.35789077789816
  C   3.54096058513366      4.48558356359531      0.39762489369808
  C   2.14782280311803      4.82142328699481      0.89079947878160
  O   1.96196576722948      4.48888702473492      2.25328606935495
  C   2.24442182879163      5.47991613849469      3.21691746528142
  C   3.60923010912969      6.10968847191050      3.01526927831064
  N   4.63210512576335      5.53420024393485      3.48327438877608
  N   3.55972841197204      7.28485702788959      2.26545804446340
  C   4.55273750297022      7.59813626921926      1.26421165825733
  C   4.25109953638171      6.91596818279636     -0.08951539005680
  C   4.48258748784508      5.42365110906947     -0.03487808923644
  C   5.74326048635704      4.97362155210568     -0.42760842336365
  C   6.02943234798927      3.62578989702985     -0.39081713844108
  N   5.13544098265126      2.71635582558282     -0.01095241533782
  C   4.62327656310344      9.05602217249351      1.07330407302833
  N   4.65209232528478     10.18375338282963      0.87701343959649
  H   1.42828279051179      4.21351436440749      0.34175666524762
  H   1.90280322949131      5.86912190753262      0.70172928530073
  H   2.22395041787673      4.97427925983955      4.17825935409177
  H   1.46523707503276      6.25425736231051      3.19822594900918
  H   5.50469799993922      6.01495893078499      3.27086216263861
  H   2.62992614015461      7.58040079444151      2.00779986375890
  H   5.52965243389085      7.26764575675903      1.62185044907245
  H   4.91001816845425      7.34304849447055     -0.84628326242679
  H   3.23100210444789      7.17116454520914     -0.37880382896498
  H   6.49059376240580      5.67755659825906     -0.77152863904535
  H   6.99971109934978      3.24906034521105     -0.69177981769000
