21
Coordinates from ORCA-job 10046optt
  Br  1.11668939615884      0.42031060885519     -0.11008781526156
  C   2.94651900053643      0.05730212752941      0.00758098018854
  C   3.54653473216720     -1.16071949569787     -0.07185916236500
  C   2.91405087173409     -2.47273837747004     -0.26105880318166
  O   1.57170626141517     -2.49074397402222     -0.37306823661724
  C   0.96325883323479     -3.74895380815787     -0.57241736493431
  C   1.21899067455537     -4.28355875562594     -1.91959029058668
  N   1.38351634192777     -4.70534158517701     -2.97081902510978
  N   3.55293929662938     -3.57156677972249     -0.31770963556544
  N   4.89967979337244     -3.58929830722535     -0.20519789439649
  C   5.71753592676057     -2.50704354470422     -0.03287251624879
  O   6.92029040343488     -2.61388281765191      0.04784950291087
  C   4.98376496987806     -1.23015345037388      0.04384267691883
  C   5.68974885198405     -0.10078579935568      0.22825984323367
  O   5.11798021318273      1.09052578903518      0.30846052277121
  C   3.74523213576118      1.27900612976767      0.21183023162988
  O   3.33346146013615      2.38974493111011      0.30157999721475
  H   -0.10436476545750     -3.57856352655568     -0.45548094422122
  H   1.30904500087506     -4.47398489994138      0.16499805998956
  H   5.32557835211876     -4.49966626007567     -0.28779562605039
  H   6.76684224959454     -0.08388820454034      0.32255549968125
