25
Coordinates from ORCA-job 10045optt
  Br  1.89526765364183      1.01895004056310      2.72531821311960
  C   2.56603850544620      0.89564812817247      0.98050253569548
  C   3.42136189990787      1.79240693654400      0.44542757839867
  C   3.36919473129611      3.27597458641385      0.67575584410465
  O   2.58490908618701      3.77403194727557     -0.40135336318365
  C   1.20037533338529      3.93362372665589     -0.17443409399468
  C   0.37326475335749      2.67918003186707      0.08139658297715
  N   -0.26295526935784      2.61308389847322      1.16799570374084
  N   0.34202481382090      1.71434710448331     -0.95837688070494
  C   -0.11297329484506      0.39259236132584     -0.77111597131068
  O   -1.06310852131760     -0.06332513178024     -1.34871855328308
  N   0.67156296028090     -0.36749803414383      0.10028995543978
  C   2.07220823863591     -0.09008262250433      0.05471172743531
  C   2.81977894730210     -0.45376501401235     -1.00031240914059
  C   4.06916330648701      0.23796684654784     -1.26888463105864
  O   4.93294765977701     -0.06482092058288     -2.03000526314625
  O   4.13775574561560      1.48419340625946     -0.64801358164872
  H   4.35342262854107      3.73154076280664      0.58490291235946
  H   2.92693067840558      3.50966525367165      1.64557305366450
  H   0.82768900330929      4.42316913329615     -1.07770401603696
  H   1.01753406622155      4.58826803623814      0.68037991571421
  H   -0.84727730836054      1.77928857456244      1.24029820786694
  H   0.06183003889864      2.08023800413866     -1.85949202093926
  H   0.37738242800874     -1.33453492105154      0.12310214173654
  H   2.45367191535494     -1.12414213522015     -1.76524358780565
