26
Coordinates from ORCA-job 10042optt
  Br  1.08836651344987      0.49329552565477      0.18383027473371
  C   2.93589455740321      0.18414845506183     -0.04511635821927
  C   3.46818035766648     -1.04217247540332     -0.30100129818029
  C   2.54562472578097     -2.23617492419991     -0.44669868392451
  O   2.19338464686913     -2.84579206919192      0.78960456302300
  C   3.05435033134191     -3.84728854515514      1.29772809473140
  C   4.48871700035391     -3.36437894179194      1.25603745742285
  N   5.09513452806961     -2.69532903253376      2.14011545326508
  N   5.07893516437595     -3.54683853935317      0.00937898901503
  C   5.68202039362445     -2.37922936578855     -0.61022804154563
  C   5.78605132959941     -2.63416103997777     -2.05414154878588
  N   5.82327342073629     -2.84648093346313     -3.17888687774608
  C   4.91073313491990     -1.07151889864771     -0.37854935001611
  C   5.66379846847062      0.04334704654618     -0.24566672386487
  C   5.08204168788413      1.34677811117384     -0.02267815667070
  O   5.66893270625915      2.39992781290833      0.08831550566196
  N   3.68641519778210      1.30196604897367      0.08355425024133
  H   2.94693935340776     -2.96246052552073     -1.15584093149291
  H   1.60220395225318     -1.89108418065890     -0.86179984386953
  H   2.95016905000266     -4.77294003535906      0.71654086729280
  H   2.73373107292147     -4.03704475931664      2.32002805898254
  H   4.52031481392612     -2.57784937603248      2.97057920413525
  H   4.55457444824832     -4.12223307901995     -0.62829827008191
  H   6.68979972441398     -2.23020475972966     -0.21859088816377
  H   6.74408991368602      0.00655036481830     -0.28255459085610
  H   3.23832350655331      2.18916811600682      0.27033884491260
