25
Coordinates from ORCA-job 10047optt
  Br  1.10132341809402      0.03827345740673     -0.03777265346972
  C   2.96406272259224     -0.15655828180487      0.09322136410791
  C   3.58729779114397     -1.35954002306089      0.18760674704497
  C   2.88936558487193     -2.70006901454540      0.18199685742510
  O   3.28409624803438     -3.48721337374855     -0.92652520324370
  C   4.44609597279877     -4.26397559734815     -0.76844629163439
  C   5.69094816649148     -3.41447325317250     -0.66633258392585
  N   6.70511136421483     -3.38566122750696     -1.39788716775611
  O   5.66832950603043     -2.59029081234061      0.44608494486209
  C   5.01041882703705     -1.38721953223667      0.27224200723792
  C   5.73887922966275     -0.25070777977138      0.24010038634692
  C   7.24516333763078     -0.29499767859896      0.32553608063707
  C   7.85219326748487      1.02034597091035      0.16052091155428
  N   8.27174997330189      2.07930936468413      0.03964655542933
  N   5.08662823169569      0.93787088342020      0.15395132345954
  C   3.70590057002204      1.10808861861138      0.07878092855614
  O   3.22643164794842      2.21618280396450      0.00236600990340
  H   1.81611699768083     -2.56303877333396      0.09528359281005
  H   3.10793872473700     -3.22508494003731      1.11919478156820
  H   4.50397583033631     -4.91316832268867     -1.64020300570606
  H   4.38077594205232     -4.88091714259070      0.13676547119628
  H   6.62473108411621     -4.04731824951219     -2.16739126038396
  H   7.62601505820284     -0.98193286973362     -0.43337590334099
  H   7.54404409752670     -0.70301253927640      1.29356194938232
  H   5.61640640629216      1.80310831231053      0.12007415793925
