25
Coordinates from ORCA-job 10055optt
  Br  0.84925600120250     -0.03685444687095     -0.05036849477119
  C   2.70959121690682      0.06723273015493     -0.05232417055827
  C   3.39367436065555      1.23033558856400     -0.04963451062929
  C   2.91157002035332      2.65985101223312     -0.04504161499494
  O   1.77499444490048      3.03142556704639     -0.04219180940808
  C   4.14054898061303      3.56118740728095     -0.04458229549792
  C   5.34432361774874      2.63157763887585     -0.04788145659165
  O   6.50056310306636      2.96218451829036     -0.04800761975071
  C   4.82597133164196      1.25142231289343     -0.05091588645663
  C   5.51995395993757      0.09464505948382     -0.05450287495588
  N   4.83951123996374     -1.07713434899330     -0.05720935663522
  C   3.43954387971412     -1.21151844047282     -0.05729670235626
  N   2.84234709649082     -2.33301482710829     -0.06146145521831
  C   3.61862619553858     -3.54510882364008     -0.06646127696831
  C   2.65777257943221     -4.73442332217831     -0.07169672432456
  C   3.37637309314620     -6.00651717290085     -0.07535026560896
  N   3.97066198745415     -6.98612597826865     -0.07743267122993
  H   4.14433447502999      4.20566808329851      0.83613672401184
  H   4.14242177233955      4.20909989315303     -0.92279916765056
  H   6.60066131979683      0.04675750471179     -0.05534872197127
  H   5.36954383734014     -1.93522128770739     -0.06020310885351
  H   4.26671416602496     -3.61770171851976      0.81874544159154
  H   4.26710613826929     -3.61031295351537     -0.95198546567719
  H   2.01626465635980     -4.68064202087866     -0.95148318367527
  H   2.01467052607325     -4.68681197493177      0.80729666818052
