26
Coordinates from ORCA-job 10053optt
  Br  0.97612165274610      0.08419644156303      0.19612949392774
  C   2.86887739703319      0.01239023302050      0.07555373298438
  C   3.50094052269846     -1.22674359885455      0.06071923327916
  C   2.73596020939077     -2.53955524618703      0.08109596208549
  O   3.48905489737874     -3.57341775850092     -0.51239305664369
  C   4.73014229169735     -3.80258968978351      0.11513657338241
  C   5.60922673719954     -2.57204524459187      0.08203939471401
  O   6.80996130752237     -2.65089052268405      0.14437370726898
  C   4.89553029951502     -1.26479768698107      0.01523880235323
  C   5.63270286513035     -0.08917503262452     -0.04274989903346
  C   4.98200783936550      1.12813727600194     -0.05926612825703
  C   3.59188256001199      1.20170336958024      0.00004186450598
  C   2.91972457848666      2.55595411997806     -0.02006906208238
  C   2.44617387198126      2.96350509900079      1.30233659088466
  C   2.07290609601452      3.29358304449057      2.39033826169691
  C   2.31514307980512     -2.87742317741026      1.45238356416001
  C   1.98910355862559     -3.15489928717124      2.56991446930290
  H   1.84476068212955     -2.44160177649186     -0.53940172555412
  H   5.22612019225734     -4.61009471366312     -0.41844842889963
  H   4.59385673604953     -4.10287794226551      1.16252558118520
  H   6.71226819106493     -0.15541998319138     -0.07131934694309
  H   5.55100581846745      2.04816364987066     -0.10960278395506
  H   2.07467551727258      2.54330045587915     -0.71180456526220
  H   3.63066541283449      3.29659361639074     -0.38822111802530
  H   1.73543061467107      3.58894477177644      3.35478620798244
  H   1.69275707065044     -3.40194041715124      3.56166267494244
