27
Coordinates from ORCA-job 10059optt
  Br  1.07578585185541     -0.22539886720768      0.26974582278028
  C   2.93862523064518     -0.04416090189502     -0.00548417389066
  C   3.57873624368627      1.19176582749174      0.14953574814761
  C   4.93741713732112      1.23310261043484     -0.16665965553483
  O   5.67123530346179      2.38008824278911     -0.05663076094813
  C   5.20699822139666      3.50957044336300     -0.78495337274620
  C   4.10557413260972      4.25134186286849     -0.06804298173872
  O   2.88391762141286      3.52743552851727     -0.03623974014249
  C   2.89161812219437      2.38163824497395      0.72703322368215
  N   2.30872337052563      2.31035641384186      1.83527701765103
  C   5.64455115856715      0.09946122239084     -0.54278386475888
  C   4.98893674820577     -1.12192505202908     -0.65408124811583
  N   5.64475150596835     -2.27148221399010     -1.05789899343360
  C   7.08837951283844     -2.31028322099638     -1.06354942479654
  C   7.55325071688269     -3.64949666700746     -1.42594156522333
  N   7.90935959826674     -4.70320116625916     -1.69534018043659
  C   3.61403923020588     -1.17757741598773     -0.40296086501347
  H   4.86905188620993      3.19609769889678     -1.77667583911645
  H   6.07110296448749      4.16564966386292     -0.89167660134999
  H   3.88661966534063      5.17752534851739     -0.59839963402041
  H   4.42023468854568      4.49038362255610      0.95302522895579
  H   1.87597344452856      3.20631364583694      2.06383787234891
  H   6.70115914302374      0.21425262477086     -0.73653472703559
  H   5.18955205313653     -3.13925275713998     -0.82224575448650
  H   7.52511965773346     -2.04393987813426     -0.09259903491901
  H   7.48048534384322     -1.60887871428110     -1.80418200596016
  H   3.07880144710667     -2.10938614618416     -0.52457448989841
