25
Coordinates from ORCA-job 10060optt
  Br  1.32642178822623     -1.10604084410204      1.48270306010278
  C   2.89887734342087     -0.45308111305819      0.66831858299712
  C   3.22810979262276      0.85742989318716      0.71368649298008
  C   2.40018191673637      1.86968605884547      1.47811873388196
  O   1.26237049966947      2.29272650351997      0.75895426020735
  C   1.45618656724598      3.41886076974908     -0.06355018481551
  C   2.63308388344135      3.28466297699608     -0.99884628715538
  O   3.84432925500060      3.47401221795033     -0.24365555727039
  C   4.79226978622645      2.53647345757671     -0.29821700287142
  N   5.95964094785116      2.83002636387659     -0.67566108501509
  C   6.96155319406106      1.83197394844741     -0.65159989256268
  N   8.19684348014182      2.08830267001544     -0.60511759484401
  N   6.51918593793085      0.50501125135543     -0.75083382370290
  C   5.32884279402393      0.25595620126447     -0.36937095611407
  C   4.79080778783111     -1.09614681931563     -0.41981034329458
  N   3.64821792431881     -1.42274427470386      0.05017527783892
  N   4.42231885753237      1.22981786466947      0.07678744632152
  H   3.01459288274973      2.71378815218675      1.79409990923356
  H   2.02590146034238      1.36590863021235      2.36641493964722
  H   0.54009101114933      3.53130343044550     -0.64268934592450
  H   1.60025681083742      4.31917958681547      0.54575517537780
  H   2.61251949225905      4.06833034074424     -1.75597794020704
  H   2.63493632521174      2.31141207602279     -1.49451630165154
  H   8.32836705414341      3.09657450526230     -0.55685353249663
  H   5.42109320702568     -1.84642384796330     -0.88431403066259
