29
Coordinates from ORCA-job 10079optt
  Br  1.70228552364923      0.18288951857824     -2.55193883689785
  C   2.24955047255275      0.62948468999778     -0.81045246668234
  C   3.06815517505654      1.69233368826822     -0.58637656156393
  C   3.41663231078402      2.72413642461567     -1.62667363221899
  O   2.28509699005011      3.47564784534057     -1.99635916888046
  C   1.57072470530921      4.14418188459211     -0.96652265159839
  C   0.32554127972362      3.39349370805291     -0.48683570560380
  O   0.53467104038901      2.91724744059424      0.84653437537746
  C   -0.40366196386779      2.07994715856490      1.34607103833608
  N   -1.45077388823379      1.82233073887215      0.69358232762847
  C   0.01678105673825      1.50624272916334      2.69844362291522
  N   0.88530198104984      0.31360631676176      2.59247301233701
  C   1.85511135220315      0.51462169879094      1.59277153703630
  C   2.83869846528837      1.42099336727111      1.76670062605604
  N   3.45052316962693      1.98180440817061      0.68698941249247
  C   1.60196108982700     -0.08667398275014      0.28011417383468
  O   0.82160528355387     -1.01577098392380      0.14362547325180
  H   3.77682444348587      2.25653271628502     -2.54050638438038
  H   4.20334501333305      3.38422702045411     -1.23591007440151
  H   1.26361140423964      5.09255272819897     -1.40670099862020
  H   2.21874212238778      4.36692589534649     -0.11161018286338
  H   0.11532614194763      2.55219034668977     -1.15005328271694
  H   -0.54994641325340      4.04463307664288     -0.48587411647420
  H   -2.03956156968250      1.16109459141193      1.19120457029452
  H   -0.87319541072652      1.23173690932187      3.26245044823327
  H   0.54713444664005      2.27990325911888      3.25398229716279
  H   0.33158349286995     -0.49510596276800      2.32236824043597
  H   3.07504176636440      1.84052106815537      2.73432046477232
  H   4.09589051869371      2.74127170018206      0.82918244273795
