28
Coordinates from ORCA-job 10074optt
  Br  2.32289366937842      1.40800221168331      3.39013447516585
  C   2.65764359414008      1.10551155240512      1.55713378288862
  C   3.30153054579640      1.99737674360619      0.78760675080838
  C   3.47539765762830      3.46649278167405      1.01967294186066
  O   2.62787702430778      4.14460357657811      0.12018245409450
  C   1.24529136177478      4.17757826043002      0.40147331785391
  C   0.42293883374680      2.90855301794072      0.14803112399044
  O   0.80086913806743      2.31974672192579     -1.08294387512792
  C   -0.17464055987592      1.48697690760708     -1.65909733135882
  C   -0.32396595148847      0.09156378456614     -1.03228693990599
  O   -1.39873200102281     -0.30051025355713     -0.67423660893229
  C   0.90829342408417     -0.82330818099440     -0.95869854005512
  C   2.02600236507037     -0.09214883307640     -0.28137291852381
  N   1.94056948701125      0.08675187086077      0.98237058630700
  C   3.09025519976124      0.55881668631595     -1.08138424129973
  N   3.56101232673895      0.23175916974625     -2.20148687647375
  O   3.61090388670007      1.66529924852882     -0.48355516820913
  H   4.48881420306278      3.78202045382916      0.77365195975018
  H   3.25330485773121      3.71867811109677      2.05874230453517
  H   0.86541315920397      4.96010825947588     -0.25507000013824
  H   1.06915470432066      4.48335374641638      1.44107451732135
  H   -0.62696414632984      3.22537598225035      0.10560348774986
  H   0.50138119068976      2.17990431585854      0.95975107960311
  H   -1.16438555942439      1.95168513692230     -1.62930115473767
  H   0.12289648003293      1.34546145604155     -2.70239938709991
  H   1.16422426970361     -1.12347427766081     -1.97609891986572
  H   0.61975298929213     -1.69899652687991     -0.38204462504879
  H   3.11226784989830     -0.60318192359065     -2.56345219515214
