17
Coordinates from ORCA-job 1008optt
  C   0.93566647150607      2.83243052102558      0.44782689639179
  C   2.30332993652979      2.34038561057739      0.79085683553955
  C   3.38976947936318      2.52110204664427      0.04082652753033
  C   4.71081983575475      2.02928043868604      0.40151491555021
  C   5.80971638923078      2.20796345983619     -0.33188431497812
  C   7.15871756716740      1.69104057040568      0.05324425618679
  O   7.69820678311219      0.81816118349003     -0.92806906710657
  H   0.55992688715587      3.50979431389435      1.21820601822469
  H   0.22729987592462      2.00322943064859      0.38398840770814
  H   0.93376004726793      3.36110879256543     -0.50498043266991
  H   2.40670018968576      1.79742578377891      1.72744103012242
  H   3.30813701359466      3.06385310729872     -0.89774749759960
  H   4.78648293527839      1.48709156730901      1.34197260017441
  H   5.75018117584144      2.74010428031636     -1.27799840573634
  H   7.10267360997363      1.19847463559014      1.03015423730492
  H   7.87634739683150      2.50957894119588      0.13426211277057
  H   7.05026440578202      0.12897531673743     -1.10461411941328
