26
Coordinates from ORCA-job 10089optt
  Br  1.64905346194447     -0.32084209063296      0.04358011735223
  C   3.43512161770128      0.34524576704389     -0.08635232936203
  C   3.66845847476044      1.71822703583469      0.04933744846331
  C   2.57798485988315      2.66995807771649      0.48580938982772
  O   3.12457414650831      3.68010370023219      1.31372252010302
  C   2.70914052797865      5.01486331906171      1.13576223486496
  C   3.96746577120525      5.88364509947787      1.07578368434571
  O   4.73875104750909      5.66094605373364     -0.12384019620510
  C   4.54828683401834      4.44118991509724     -0.70696884856123
  O   3.75420106253021      4.26282466197713     -1.58482545724684
  N   5.36911207905216      3.47191206032186     -0.19982860121245
  C   4.98758274921756      2.11422773879370     -0.20813181245101
  C   5.96530141053475      1.15662368411604     -0.45083434500914
  C   5.60037034823256     -0.17263903054455     -0.47431250266153
  N   4.33912721197441     -0.57187749109463     -0.32438268625155
  C   3.62351150187763      7.30110415813422      1.14016899978566
  C   3.29886776776977      8.44951188630813      1.21372288792889
  H   1.83439086051618      2.11397929292507      1.05612282321260
  H   2.08825556523855      3.10346759579588     -0.39111250346796
  H   2.10868244382517      5.34076043181510      1.98835370862842
  H   2.13062448040675      5.14279846043165      0.21769358686969
  H   4.59188353050726      5.61816428055566      1.93511205712847
  H   6.05303414093524      3.76573137692162      0.47993387387446
  H   6.98437271351004      1.46229445413033     -0.64463197018416
  H   6.33410105057905     -0.95090748339087     -0.64588093352679
  H   3.01874434178362      9.47468704523880      1.26899885375464
