23
Coordinates from ORCA-job 10085optt
  Br  1.23223493593169     -0.26985176625725     -0.06263118807636
  C   3.08905588771137     -0.07627166667922     -0.01310243615522
  C   3.69842986089889      1.12513007679972      0.02143531872419
  C   3.13588444239806      2.51272917005286      0.07918630831781
  O   4.22835502855614      3.36294053482236     -0.27042862738135
  C   5.44826065987481      2.71494681618871     -0.00265389355231
  C   6.47788305618066      3.07655566714961     -1.05383246763608
  O   7.58874851922931      2.63129454612035     -1.01295868883726
  C   5.98690557261254      3.05823279389760      1.39562845757773
  O   5.32362546588109      3.61864302119699      2.21222476963009
  C   5.11445780879329      1.24255391403687     -0.01363081015199
  C   5.88635572687122      0.13886145965768     -0.05579634613142
  N   5.26867806536556     -1.07231838396117     -0.06367329173977
  C   3.88774539186184     -1.30523343739102     -0.05612639245844
  O   3.45890570538150     -2.43424190497260     -0.09178281376631
  C   2.60329417878873      2.89370933722241      1.46807349153856
  O   2.19439812089480      2.09635847866009      2.25552056513363
  H   2.33143804656571      2.67253941128760     -0.64483106155876
  H   6.12785235053624      3.76488385102200     -1.84240907807332
  H   7.01629051503699      2.70486418792375      1.58598982852818
  H   6.96671394251047      0.15189667353695     -0.10067505298570
  H   5.81821871880142     -1.91955039786429     -0.10376555911288
  H   2.62326799931764      3.97932761754994      1.66323896816700
