26
Coordinates from ORCA-job 10083optt
  Br  2.15877797349880      0.10701942303481     -3.37502340246827
  C   3.05070333167025      0.44485575291034     -1.75544680255646
  C   3.50092040321182      1.67654131379338     -1.44968058389707
  C   3.06269006054937      2.97234811013772     -2.06707933777797
  O   1.74998882360885      3.30180611702882     -1.62830328903373
  C   1.54369202038843      3.29713310125957     -0.23682417580039
  C   1.05175592649069      1.92085004765069      0.25923409290858
  O   0.34958381663809      1.23726563961211     -0.42443118114727
  C   1.48830350997359      1.43297575851562      1.65103714400994
  N   1.90991901163310      2.15789650022423      2.58525038419367
  O   1.38021008749531      0.08611296948429      1.81444559297423
  C   2.63963778381023     -0.61781887971219      1.79392673492729
  C   3.37700889765915     -0.18373033743849      0.55519905023833
  C   2.88833186814321     -0.47839009156236     -0.66357686062586
  C   4.34870225913013      0.90826778585979      0.65994314451124
  N   5.26501557223460      1.12460230627255      1.49068535835217
  O   4.16602313216157      1.89517147070274     -0.29747789716740
  H   3.00452119956740      2.89946287171793     -3.14925847611201
  H   3.76747508547774      3.75747354841761     -1.78091084633735
  H   0.74341141399512      4.01383172996989     -0.03231261474537
  H   2.44058687460714      3.61584209919807      0.30057219515864
  H   1.94297565043248      3.14187922791126      2.32727505602443
  H   3.19435182539155     -0.38875998287487      2.70456706534298
  H   2.37395565271143     -1.67189107044772      1.77626084617808
  H   2.16347018113769     -1.27556595556209     -0.78568937484969
  H   5.31698763838222      0.37782054389630      2.17761817769924
