25
Coordinates from ORCA-job 10090optt
  Br  2.01387592675630      0.65297711149135      3.00076173274879
  C   2.78970755398955      0.76610143395748      1.30376028174296
  C   3.41025171566767      1.89653834417515      0.87017065885498
  C   3.28132222196247      3.23229451394761      1.55836443617721
  O   1.93632572549603      3.66889019429140      1.52313376528378
  C   1.32890591724321      3.74438222237011      0.24949692256260
  C   0.51892955846339      2.47560909607504     -0.08537162598883
  O   -0.22859226395385      1.96327789408261      0.69645681785568
  C   0.78110936771700      1.85496257304916     -1.48060773663072
  O   1.27437833521975      2.52663919674547     -2.35273610825395
  N   0.57699709442739      0.49746357848439     -1.56777564459927
  C   1.74129766772904     -0.28588622435539     -2.05291239267978
  C   2.79201395229281      0.10694493854194     -1.03680395415959
  N   3.56499201801608      1.08878543680756     -1.35992464861191
  N   3.95386705605940      1.90779432601549     -0.37630184146041
  C   2.49636659162259     -0.29467888541199      0.36005596210757
  O   1.90795377034067     -1.32725882770787      0.61529432611114
  H   3.93594778620473      3.96610753377723      1.07244739330904
  H   3.54377828485679      3.16253222705663      2.61123501670146
  H   2.05118271134543      3.94662015026237     -0.54357803505643
  H   0.61850429104467      4.57274409810622      0.28804783033495
  H   0.16246079013666      0.10609228483763     -0.72766696613408
  H   2.01851672351807      0.04296796553817     -3.04961829035677
  H   1.48250933076414     -1.33896389219843     -2.03772216962848
  H   4.42839787307999      2.73306271006064     -0.70920573022994
