21
Coordinates from ORCA-job 10107optt
  Br  1.18609186050925     -0.17821402056523     -0.02484354376917
  C   3.03985259554312      0.09620289777737     -0.03065330483184
  C   3.68469369012453      1.29468847364368     -0.03232680511055
  C   5.14111359924655      1.25827879031326     -0.03517287651175
  O   5.74590288738939      0.02013661186550     -0.03704033490631
  C   4.98559125557381     -1.07121973698012     -0.03575318967458
  N   3.71856489464268     -1.10894453484272     -0.03266274907059
  C   5.92441311265602      2.33766919727858     -0.03567601661925
  C   5.36565476050080      3.68504918649737     -0.03316364540019
  N   6.06794418609939      4.75021719700754     -0.03213278615621
  C   3.88930933191103      3.77204415473644     -0.03179450634991
  C   3.12019175243533      2.64465268309404     -0.03138713718360
  O   1.78137832762879      2.64709066554353     -0.03045878015574
  N   1.04799928235031      3.80741815546664     -0.02970366372291
  C   1.70113219000505      4.89715322941477     -0.02996570015996
  C   3.17550383895500      5.05429097890354     -0.03105442590699
  O   3.64715657737415      6.16404731745019     -0.03141609727321
  H   5.58054848429458     -1.97645306423778     -0.03746654254173
  H   6.99984837881220      2.21794923635258     -0.03754920597137
  H   7.06052512009724      4.51483900809035     -0.03335678364074
  H   1.09958387385075      5.79910357319048     -0.02942190504337
