24
Coordinates from ORCA-job 10104optt
  Br  4.64977227507124     -2.46003667045520     -2.35389782994603
  C   6.10526648107880     -1.24825012995541     -2.36899359696562
  C   6.56664971470725     -0.64982826621254     -3.69712141738542
  C   6.53253695909408      0.87557835320530     -3.39222408432498
  O   7.28226859659988      1.15509952218262     -2.20358694464238
  C   7.72460307397329     -0.03468938269365     -1.69143812611111
  N   6.67076567697217     -0.91182314781230     -1.29423012630402
  C   8.90315876846626     -0.53521266635732     -2.05357296885430
  C   9.05157446308805     -2.00148221799259     -2.21442488903104
  C   8.53990442139963     -2.35428544570989     -3.39434375917702
  C   7.96761014464078     -1.20843106253564     -4.21421488535617
  C   9.10911155010226     -0.15327005641910     -4.29918939447597
  O   9.62096639290736      0.17655756900983     -2.99890873819849
  C   7.61351249815027     -1.65801565027871     -5.63757228996265
  O   8.38790321486040     -2.10633918414538     -6.42280981346891
  N   6.21847833065697     -1.46712863204181     -5.91225641892478
  C   5.68299988788063     -0.95541672298714     -4.88320717571122
  H   6.95014493815231      1.45661854493837     -4.21390285247894
  H   5.49473548709028      1.17972198160044     -3.23456618139736
  H   9.50948804523215     -2.67973041896434     -1.50851785001480
  H   8.56591802179171     -3.35638911339987     -3.80410617012673
  H   8.78542828250376      0.76723267277056     -4.78759503180840
  H   9.90804605911303     -0.60166335250708     -4.89055157183806
  H   4.62215671646739     -0.71781652323914     -4.86576788349557
