24
Coordinates from ORCA-job 10106optt
  Br  1.18471501198003      1.68370945393630     -1.24653480837644
  C   2.72507823801973      0.89762899177793     -0.52112979306299
  C   3.74805777085884      1.61210451560490     -0.01162515621173
  C   4.93237363245334      0.87294372935902      0.36486673540617
  O   5.10750003231635     -0.33680083027115     -0.27797689549585
  C   3.98318791901214     -0.96520241563595     -0.64232173647065
  N   2.80769322396027     -0.47409498359577     -0.68161580095271
  C   5.94899165209450      1.54292430530102      0.92895683046017
  C   7.11036625891867      1.84393158100487      0.05423208655613
  C   8.49529825794433      1.29303366128684      0.23943762623873
  C   8.98060831533583      1.48805414225357      1.60461270780503
  C   9.36170741312703      1.65703674735961      2.72619981859012
  C   6.75746688820859      2.69817445144706     -0.91754177475177
  C   5.37867556890601      3.26284035352208     -1.16405498192612
  O   5.21877952673090      3.95486634884796     -2.13411479134189
  C   4.09395810376571      3.04117664651463     -0.27686474288602
  N   3.44759483876707      4.07948810501549      0.02494501594663
  H   4.17369884695222     -1.99091001532383     -0.93326228115944
  H   5.63224682657912      2.38649632998341      1.53134764936458
  H   9.18279011029329      1.74876912254720     -0.47464226912799
  H   8.46799527323039      0.21863353657835      0.02860224704551
  H   9.70674809412143      1.80386240239156      3.72180977443088
  H   7.48289694175683      3.07921810020350     -1.62982690825871
  H   2.59957125466733      3.84911571989139      0.54450144817836
