21
Coordinates from ORCA-job 10105optt
  Br  1.18804731790123     -0.35560079242357     -0.47102867029805
  C   3.02712249604391     -0.09281927703675     -0.23925805071271
  C   3.60331599008827      1.12257392003365     -0.03933368090109
  C   5.05609621295465      1.10587676429198      0.11493758009373
  O   5.73319008210087     -0.06000325176145      0.06383383354550
  C   5.03025501075793     -1.16950230842358     -0.13795195111579
  N   3.76243312558133     -1.24164197154697     -0.28566664591928
  C   5.54732773693219      2.35792298583089      0.29608424336333
  C   4.41039799907591      3.22227619696021      0.25781882959130
  C   3.24981423119782      2.51092999833253      0.06142007407901
  S   1.70203510881615      3.30306154052175      0.02920760816351
  O   0.81212147352783      2.68154948674373      0.95225868076529
  O   1.96652203780417      4.70662103646956      0.06471204103170
  N   1.06640876806469      2.99207179387016     -1.47029976783100
  C   1.33943083556256      3.73129841335196     -2.60743149708760
  O   0.92921543532378      3.42428967106096     -3.69083861474261
  H   5.65665763384262     -2.05107107973865     -0.16655317182232
  H   6.57469994453247      2.64503721654084      0.44062148836225
  H   4.43578158850536      4.29529209841456      0.37403226529904
  H   0.52149384033843      2.14366866300838     -1.57011808652155
  H   1.94963313104780      4.61916889549978     -2.39944650734264
