23
Coordinates from ORCA-job 10109optt
  Br  4.65608359021818     -3.36472046987487      1.36157323356856
  C   5.61514629928462     -2.07913545496529      2.33162377357207
  C   6.06347845540608     -2.21198442930463      3.58818861875664
  C   6.77509806466853     -0.97228099527806      4.05892556095729
  O   7.77776818061170     -0.59848138795377      3.08691272702199
  C   7.44033139332939     -0.86917265728991      1.82347445998878
  N   6.02186750322755     -0.92615952835882      1.63231317577696
  C   8.35828174810002     -1.23198064932936      0.92308860935441
  C   9.64586709455237     -1.85536437776000      1.35590502717644
  O   10.70907831022705     -1.76609456236060      0.81861935353079
  N   9.33593684695079     -2.80650379514700      2.37010637110617
  C   9.54074006016929     -2.56364882686616      3.58600684784141
  C   8.84107060355974     -3.36028005777036      4.65271789196366
  O   9.06445598845682     -3.15401307745466      5.81304020654226
  C   7.71736424489340     -4.30526404281497      4.24240752490590
  N   8.00199971115126     -5.46975669644164      3.88582064804624
  S   6.02575031540533     -3.70010624542394      4.52311627200150
  H   6.07426912374198     -0.13902928002172      4.14727934147321
  H   7.29632693031924     -1.11623126565283      5.00161327573626
  H   5.74130348350280     -0.91971655455975      0.66117014800312
  H   10.10173958155262     -1.70622914007150      3.96558326118203
  H   7.17602975560242     -6.03657469753335      3.68993463571653
  H   8.09101271506869     -1.36027180776680     -0.11642096422228
