23
Coordinates from ORCA-job 10100optt
  Br  0.98762900443546     -1.32335122935350      0.85119373764058
  C   2.60233441049041     -0.50052769945886      0.35810400727740
  C   2.73744887751727      0.83638730610776      0.38080843907725
  C   1.68969454019308      1.85142771700300      0.74593446098797
  O   1.34389721931959      2.63123054526678     -0.39405589727201
  C   1.56060144003220      4.01990614979883     -0.33843087686240
  C   3.00616526590355      4.28268681313594     -0.69127260095734
  O   3.45760099348742      4.84948697937506     -1.61771260010464
  O   3.82822413988786      3.66462628113012      0.28105676458276
  C   4.53286739657395      2.59716703297599     -0.10739485264581
  N   5.73692965122425      2.58387273397086     -0.53815950962572
  N   6.01060703155275      1.25993095551195     -0.74336223386986
  C   4.97203644048737      0.44790304058902     -0.42309714172466
  N   4.89915541972487     -0.83053521609694     -0.46955665559421
  C   3.70235294479708     -1.41929481017180     -0.06379323599610
  N   3.50295052251327     -2.67312196417320     -0.04348450813107
  N   3.98976381605087      1.32635377990781     -0.01428226720368
  H   0.79899245469068      1.32404408353699      1.07612397794515
  H   2.04821118463543      2.48701175037154      1.55846505487610
  H   0.92339862752188      4.48406397504721     -1.08683873860639
  H   1.33934721771417      4.43440836690493      0.65019511846600
  H   6.91568742739603      0.96817620958992     -1.06664570435123
  H   4.34410397385051     -3.14785280096941     -0.36679473790811
