23
Coordinates from ORCA-job 10113optt
  Br  4.14329437717987      3.25438198479079      2.69329148648370
  C   5.07276142887025      1.66218002689124      2.33011481839462
  C   5.06371486221931      0.58463933650073      3.16492053014632
  C   5.59396978460533     -0.61307159024897      2.44738766185975
  O   6.91551778760747     -0.25629657187780      1.92533711127127
  C   6.98311512807601      0.94381179317090      1.41176004052516
  N   5.98331274040214      1.76256921040217      1.30678318002659
  C   8.44455396659370      1.44993590914867      1.37476736057788
  O   9.09428257873178      1.51468294624055      0.37105025446610
  C   8.92182346454561      1.71525752416890      2.75389607915342
  C   7.97936953629730      1.85495229378736      3.70027964748242
  N   8.01094063316794      1.91348311575233      5.06316611667050
  C   6.85394058322240      1.85062341395297      5.85015040278575
  O   6.88438358886461      1.86943737360430      7.03425725406240
  O   5.70097196595056      1.84776106557725      5.10025508835198
  C   5.18651753736213      0.62801370813376      4.63977404768656
  N   5.04789462330220     -0.30300840145415      5.46773220064080
  H   5.76371014598107     -1.47219989252418      3.08930676691703
  H   4.98739283599157     -0.89077783343697      1.58506729995715
  H   9.99016851483569      1.70405768525313      2.92312397641630
  H   6.96420782770499      1.93733005907283      3.37645659376344
  H   8.87442336761676      1.89733075759413      5.58672888012014
  H   4.64573272087124     -1.13109391449993      5.03639320224070
