21
Coordinates from ORCA-job 10133optt
  Br  1.05562046526703      0.06883259623612     -0.41032010157290
  C   2.93671406164455      0.04714295569337     -0.19344710497006
  C   3.62217534223027      1.25213200528111     -0.15920326123222
  C   4.99334894698221      1.11201415733095      0.00328356000007
  O   5.79718162593023      2.20362817443213      0.05612568387078
  C   5.20989810439612      3.42370968118837     -0.06789432475365
  N   3.99538531454191      3.69054059036609     -0.22813053600932
  C   3.02334983024697      2.61159680139546     -0.29597261274125
  C   2.25283878448740      2.84834796936116     -1.60672607571572
  O   2.58556344037731      2.49007300938633     -2.69072468670114
  C   1.02068962796059      3.64979550571506     -1.23945077500042
  O   0.92494765408898      3.59914089126662      0.17974041545456
  C   1.95297155849584      2.94952050506764      0.76030699942501
  O   2.01681628715073      2.72207380951156      1.92178738484114
  N   5.61120791927947     -0.04315846805771      0.11493869954994
  C   4.83402566876238     -1.11493206040701      0.06489280700794
  N   3.51282856816943     -1.12787128699186     -0.08515036868692
  H   5.95467654006685      4.20754558201387     -0.00649580608326
  H   1.12929355258460      4.68520780950307     -1.56557576700139
  H   0.12778232271563      3.21096483285436     -1.68342645137653
  H   5.32068438462149     -2.07830506114672      0.15644232169533
