22
Coordinates from ORCA-job 10146optt
  Br  1.17521548842124     -0.16762943949109      0.34637740329137
  C   3.04550594550832     -0.00663764521353      0.19902386009961
  C   3.66837133728000      1.17860858578349      0.05019954950233
  C   2.99112608899267      2.50471873231381     -0.08346013926484
  O   3.84293924249693      3.56326554824238      0.36729888723440
  C   5.14324313672141      3.43833407547382      0.09922370692936
  N   5.79210436284227      2.37137053758599     -0.15096103485063
  C   5.10151019342349      1.15581030578205     -0.06169335228994
  C   5.80014926079778     -0.00695677603962     -0.04159263112394
  C   5.13225704176432     -1.28153229159283      0.10265260184575
  O   5.64844243132805     -2.37788874103198      0.12931745589018
  N   3.73506325532752     -1.17349718590264      0.22681509838052
  C   5.87163670816311      4.71220637986483      0.14591745095996
  N   5.29304394444430      5.86626899573579      0.28187683699024
  O   6.27698632572869      6.77361659035487      0.27077863206618
  N   7.49313350687247      6.19509634172202      0.12691807837060
  C   7.27441398602599      4.92430252716768      0.04732369452969
  H   2.08775268273860      2.56782015346250      0.51736487434824
  H   2.73532047812649      2.71575916830325     -1.12678730346689
  H   6.87707013556835     -0.00852056338663     -0.11884294059836
  H   3.24358401181780     -2.05016049337439      0.33459663225928
  H   8.06713043561015      4.20664519424021     -0.07434736110312
