23
Coordinates from ORCA-job 10145optt
  Br  0.96026712668295      0.02320644372035     -0.11201503741377
  C   2.82637854915691      0.04615026134178     -0.09233754772085
  C   3.52718603749938      1.24050658141637     -0.12010298841153
  C   3.06588096093264      2.64422104668031     -0.15252666591671
  O   1.95181073297398      3.08619040114852     -0.17533452111736
  C   4.33616091262416      3.50407457727843     -0.15026267468622
  N   5.40733443387775      2.52853744822935     -0.16611905381997
  C   4.94374653779836      1.25581989919113     -0.11623140617266
  C   5.69052089041836      0.06394099237289     -0.07655459749090
  C   7.15222926366847      0.03327531109920     -0.08906454475200
  O   7.80233501621143     -0.98299364608315     -0.04895608776819
  C   4.94549742940077     -1.11299755018118     -0.04003639107305
  C   3.56262354579653     -1.13876876379994     -0.04852884952821
  C   3.12321917973699     -2.55511590144425     -0.00995564772889
  O   2.02828924068571     -3.02106552644591     -0.00387263832658
  O   4.24862972049150     -3.32063885328366      0.01874915416653
  C   5.43083392948889     -2.52802032872103      0.00649481830382
  H   4.34904720403701      4.12607712617387      0.74702353590454
  H   4.34409027217132      4.14889168308271     -1.03020079326021
  H   6.37309254026915      2.77672588353219     -0.05754158984505
  H   7.66684605546153      1.01079248849969     -0.14621327223478
  H   6.03729130961555     -2.78535111691987     -0.86253304633420
  H   6.01968911100064     -2.73345845688780      0.90111984522625
