22
Coordinates from ORCA-job 10154optt
  Br  1.39419004962516     -0.63600075840312     -0.77425299942892
  C   3.15207573339662     -0.14448214597521     -0.35655270060460
  C   3.53634959082786      1.11280890689219     -0.11051766194073
  C   2.64894430410779      2.31163385478405     -0.03614575548290
  O   3.37239050318158      3.49958424524603     -0.40949815257628
  C   4.67814736109876      3.54301568531340     -0.11089850598797
  N   5.45941615136659      2.59017591448342      0.19057637237475
  C   4.95598650032396      1.29158329498240      0.12746626369199
  N   5.78273703450092      0.31494124189928      0.22148941301830
  C   5.31421192995627     -0.97933964030154      0.11282705090835
  N   5.94095170725315     -2.04006587343084      0.33007713388538
  O   3.98105327332814     -1.16972021902173     -0.32252736038873
  C   2.09985003078505      2.50504412906047      1.34386516311090
  C   2.05229803593838      1.70709848068563      2.45482287572245
  N   1.40018155696021      2.38108707489667      3.43873273183909
  N   1.05222237560340      3.54004166604649      2.99896571996104
  N   1.45934396237089      3.62815453181519      1.73523253629705
  H   1.83588413595773      2.23574732274517     -0.75913755890330
  H   5.05682910565297      4.55764865086042     -0.18112207817679
  H   6.89314622806628     -1.81206886397837      0.60246263094764
  H   2.43715175349726      0.71241287735543      2.60134750251865
  H   1.30763867620098      4.47969962404454      1.21778737921461
