20
Coordinates from ORCA-job 10160optt
  Br  0.95365628144617     -0.34509223553832     -0.21056046107150
  C   2.82153737202380     -0.26473064746131     -0.13341816640175
  C   3.47236855514567      0.92828145812581     -0.10917283744760
  C   3.21020206404655      2.44022231694859     -0.11112952734126
  O   2.15766853529617      2.98621571917209     -0.12781926965422
  C   4.62711695338663      3.14589217256301     -0.07875507695261
  N   4.70217491427841      4.40118998514310     -0.07941588306760
  C   5.58665671208933      2.03365413108566     -0.05441506232989
  C   4.85269685974167      0.88684677510940     -0.07055568444420
  N   5.67244954171345     -0.18661395942498     -0.05447517252087
  C   6.94569541066775      0.37066428669572     -0.02659710009943
  N   6.90292856759306      1.69471572925694     -0.02683839698735
  C   5.03487545394799     -1.42881804110204     -0.06923684456319
  C   5.91895515345786     -2.61032764093938     -0.04626142928918
  O   7.11657739652480     -2.48719425236649     -0.02493505720272
  C   3.65556656816872     -1.45444080982814     -0.10621101355139
  Br  2.78772836702579     -3.12965593373590     -0.12141001585513
  H   5.67464855617577      4.71149423320069     -0.05636054991387
  H   7.83122989039275     -0.23704952793556     -0.01050795451694
  H   5.43226684687763     -3.59225375896888     -0.05092449678928
