25
Coordinates from ORCA-job 10168optt
  Br  1.14993101770769     -0.68024955281326     -0.40183009618781
  C   2.93848136563849     -0.18757607747668     -0.08248464470987
  C   3.35853894787696      1.10402867744347      0.03630119879962
  C   2.39314643664493      2.25628803739214      0.00327575927899
  O   2.76435508475169      3.30262190809424     -0.88102928899755
  C   3.67730408159875      4.19477584047961     -0.41989758205356
  N   4.75217798184847      3.99571211978627      0.18456857680914
  C   5.42329955123214      2.74412328927407      0.36049793315421
  C   6.25922529523588      2.78125374115972      1.65446176109810
  O   6.19284151982902      3.64407644749355      2.48816309465999
  N   7.10229485239647      1.70779940747927      1.74483384634126
  C   7.01493049236454      0.57990348247113      0.84084238163447
  C   5.57663579545974      0.32764364161143      0.48242567357381
  N   5.13819273376963     -0.95019445215007      0.36922493990706
  C   3.83891149960915     -1.33009992415415      0.05275204197560
  O   3.55180392767963     -2.50137117940154     -0.06037775001587
  C   4.73927594590818      1.37669522365103      0.29202068415499
  H   2.30866612803798      2.65975785654771      1.01810001783563
  H   1.41331027833458      1.92889995339315     -0.32426872921020
  H   3.37820573683027      5.21424936696275     -0.65164104313993
  H   6.17562630577447      2.73727046025765     -0.44336350659955
  H   7.61953274861582      1.61875882479397      2.60447100788583
  H   7.44845763624953     -0.29449398948486      1.32463686028243
  H   7.58940506552621      0.76142264131333     -0.07666992618984
  H   5.76944957107975     -1.72629574412392      0.51898678971305
