29
Coordinates from ORCA-job 10163optt
  Br  1.22663324365301     -0.65711614421442     -0.82810432896511
  C   1.83131523850699      0.88580794098678      0.08083318146827
  C   2.69695794507737      1.74734195317521     -0.59115806139684
  C   2.56445941733770      1.96820230957460     -2.07435006484606
  O   1.24397488437793      2.52263145993538     -2.29568336409728
  C   0.80447315191309      3.38309788387141     -1.32247221296577
  N   -0.21226865865703      3.09797653958567     -0.65285658068092
  C   -0.73743402582403      3.92887898819718      0.43526757963602
  C   -1.55517479562983      3.02790545046800      1.39857107485301
  C   -0.76525673029364      3.03861427030378      2.72584546525232
  N   0.60280371146552      3.45404644432740      2.38365958609782
  C   0.30299753976291      4.54152940799290      1.40383024186107
  C   1.50498165016115      2.55413118824397      1.77982996790253
  C   2.71228567021851      3.13486368900217      1.36457899516380
  C   3.27525545873125      2.76369640447320      0.16338310641111
  C   1.27265017986725      1.24006074987999      1.31098508422643
  Br  0.18305842660496     -0.00513760726606      2.22646101918024
  H   2.59367439046065      1.06742322570517     -2.68085270538226
  H   3.32703701138883      2.67004219953302     -2.42171796329498
  H   1.41597365905758      4.28584030086010     -1.20975157653040
  H   -1.36348845477574      4.70815594645712     -0.00206398692223
  H   -1.61416964311728      2.02793299043671      0.97220914179993
  H   -2.56895117080568      3.39880791682387      1.54202271233118
  H   -0.78923351978286      2.10487584526613      3.27035040021956
  H   -1.15399581359826      3.81504566711384      3.38675656884082
  H   -0.16463552862039      5.35806989979106      1.95667416364001
  H   1.19977080378690      4.91908786355394      0.92643633327829
  H   3.04209876972202      4.03059341038065      1.87408363924808
  H   4.05420718901110      3.37659380554120     -0.27576741632867
