21
Coordinates from ORCA-job 10169optt
  Br  0.90422888786511     -0.00682324048082     -0.02063385257715
  C   2.79523111078081     -0.03918156920651      0.06129459171478
  C   3.50630207900042     -1.18138771161083      0.17890941390161
  C   2.85849510843301     -2.53306090471291      0.32459220940410
  O   3.05817799490467     -3.36436823134868     -0.81743991875140
  C   4.15287018815181     -4.17362416412668     -0.85784715372913
  N   4.17932854337575     -5.25691739353229     -1.48963711554827
  C   5.35090827645713     -3.66449251706451     -0.17447228657705
  C   5.66485497552050     -2.40762680944670      0.24435259313697
  O   6.90571358940738     -2.44401947932551      0.71891466308665
  N   7.35961891892935     -3.76133315251705      0.58923217965968
  N   6.46019325984336     -4.44266333934007      0.07245586065554
  C   4.95707724944192     -1.12567164061047      0.20368168726705
  C   5.71247089252443     -0.00285610154095      0.17633925932116
  C   5.20610857761744      1.35317996551611      0.09688448895053
  O   5.87818999711358      2.34882235821178      0.08952957962740
  S   3.42621266180231      1.55891455244249     -0.02898585148833
  H   1.78417606543187     -2.43467434626830      0.42767665944321
  H   3.24138028237841     -3.03254498459641      1.21772614377541
  H   3.26683437919392     -5.45528818584429     -1.89899353103540
  H   6.79262696182677     -0.07338310459737      0.20142037976264
