21
Coordinates from ORCA-job 10167optt
  Br  0.62714623961015     -0.51207463426875      0.18022856654110
  C   2.47669230537238     -0.22388104962751      0.15115001183550
  C   3.38557416599724     -1.21809067440854      0.07174837727807
  C   3.30928792368943     -2.70367198388918     -0.01371473234354
  O   4.67397271720559     -3.10977732386735     -0.09489807014220
  C   5.55077065322681     -2.07255579551611     -0.02507296532890
  N   6.77551094430496     -2.34477559674724     -0.00304882580419
  C   7.86902994369415     -1.51269251611908      0.03564137210486
  C   8.13823080458628     -0.22040815653770     -0.35428466378754
  N   9.43811924131036      0.13948120407609     -0.20948442507883
  N   10.19189979388561     -0.77618147094539      0.27146367366913
  S   9.35350657881174     -2.17763742151002      0.55886206273051
  C   4.74150910766138     -0.81202891166433      0.05196187916230
  N   5.20411604682962      0.39171897916862      0.09682608923357
  C   4.28816269095375      1.42901805084160      0.18691823633891
  O   4.56209574126320      2.59541136298019      0.24077325197265
  N   2.91612383128116      1.04607963763036      0.21010161344558
  H   2.78504149710966     -3.05769378132867     -0.90302405557896
  H   2.85968334468034     -3.16220335769552      0.86937094572880
  H   7.42929058490348      0.49000412841545     -0.74130273106376
  H   2.26123584362261      1.81495931101309      0.26178438908693
