28
Coordinates from ORCA-job 10175optt
  Br  1.16093471893192     -0.00040365064624      0.60847839332169
  C   3.05423725879785     -0.03888059679890      0.36710665544652
  C   3.73090631178446     -1.26371127157337      0.37468859099555
  C   2.98046883559118     -2.55637749649151      0.58093648119831
  O   2.61431610412183     -2.66420455093144      1.95066958382715
  C   1.37755411073843     -3.15105373857621      2.22718589241332
  N   0.98594909199843     -3.48397036322923      3.36712695791806
  C   3.70892101147153     -3.84681576280183      0.14983668762988
  O   4.26616406405348     -3.64595081089348     -1.13012507004985
  C   5.63681817668465     -3.28752281264668     -1.08781743104781
  C   5.93912898541387     -2.46379489246646      0.16762473714564
  C   5.65448034536884     -3.36450355144168      1.37849417499569
  O   4.64223194624122     -4.31143304500081      1.06518806555473
  C   5.11142238039682     -1.20594759229320      0.18501271878786
  C   5.71227325679691      0.03577449469016      0.00815467700375
  C   4.92902738021339      1.17338236656321      0.02798799043649
  N   3.61028023794076      1.13559627967702      0.20611971545493
  H   2.07859667517026     -2.50830298708691     -0.03679888809670
  H   0.71863103859014     -3.21627876557309      1.36040262371272
  H   1.72471866380066     -3.36324844514185      4.06050504952162
  H   2.96470836786650     -4.63875537401082      0.05572193976359
  H   5.84085458508350     -2.71912120300397     -1.99410829472373
  H   6.25735041962859     -4.18880530451526     -1.08494768809558
  H   6.99400897465878     -2.18754827735972      0.16072427179015
  H   5.35403637470107     -2.77545294746923      2.24938965824837
  H   6.53878191805184     -3.94818519867025      1.63173745516496
  H   6.78197736972118      0.11265111823065     -0.13737040592034
  H   5.36522139618186      2.15686437946115     -0.10192454239698
