23
Coordinates from ORCA-job 10171optt
  Br  0.60977678301841     -0.66773274065844     -0.06090857379873
  C   2.42190880291854     -0.18022126964256     -0.03135752742154
  C   3.41164205426523     -1.08562010415129      0.00967210415127
  C   3.39486493783749     -2.57531054506667      0.03579980549290
  O   4.77357626989107     -2.92790724540437      0.08016414698197
  C   5.60482835257538     -1.85723054170627      0.06874509510188
  N   6.83952746582258     -2.12281179273242      0.08010480527420
  C   7.88901839345516     -1.26258322051165      0.08613740867971
  N   7.99017794899409      0.03044320749675      0.14356628571775
  C   9.34605971386036      0.28452642778983      0.13079586141363
  C   10.00753259795710     -0.88871848952226      0.06462350435636
  O   9.09022750918313     -1.88192270683286      0.03704129130681
  C   4.76136697623331     -0.62529636700440      0.03307926699828
  C   5.08015729599405      0.68975409427582      0.01880587890066
  C   4.01597615321148      1.68439639954912     -0.02891496386281
  O   4.16223794106386      2.88662210311356     -0.04786269371263
  N   2.71571762537925      1.14527751434258     -0.05198858798080
  H   2.94906774682155     -3.01582147557281     -0.85843399448147
  H   2.89974097551704     -2.98653738970307      0.91758858748055
  H   9.74048616107788      1.28481715382685      0.17112511839453
  H   11.04318240392971     -1.17344009467140      0.03288126630645
  H   6.09812612053497      1.04268138102451      0.04530796453213
  H   1.97179977045826      1.82963570176147     -0.07997204983111
