23
Coordinates from ORCA-job 10189optt
  Br  1.51189350793801     -0.01373065917416     -0.51382199491297
  C   3.35989479276597      0.06832882579020     -0.24265063963211
  C   4.09354552871119      1.22385237532616     -0.13449117990480
  C   3.47934042154749      2.57298223405521     -0.25510845817249
  O   2.29187554617426      2.76631885891048     -0.47516561021029
  C   4.42255676382953      3.66805145182485     -0.09000640299638
  N   5.68932060199736      3.53982238283442      0.13869054658696
  C   6.25966185246393      2.31166524331796      0.24213005119122
  C   7.66118180015934      2.25144061039560      0.50727867705288
  C   8.83742028247414      2.15840371429973      0.73680794932509
  C   5.52389933680197      1.13799036960759      0.11019124470117
  C   6.12203635236884     -0.14214785818455      0.20630848730400
  C   5.33386601276878     -1.23745706417330      0.07287234703532
  N   5.61471459193690     -2.57590413670628      0.11315672432450
  C   4.45757524492957     -3.29925418093945     -0.07502588930573
  C   3.43573892486005     -2.44466295131086     -0.23602536589126
  N   3.96715918289136     -1.14761481642732     -0.14659555639775
  H   4.00687140107063      4.66719776237667     -0.17211313892632
  H   9.87883640745274      2.10797136922642      0.94503102262204
  H   7.18343465644806     -0.23809586577147      0.38333891654573
  H   6.53390286095112     -2.94925628352234      0.26732296341391
  H   4.45210831543526     -4.37439481616461     -0.08107035019101
  H   2.39216561402345     -2.61850656559096     -0.40805434356171
