17
Coordinates from ORCA-job 10184optt
  Br  1.00995665138031      0.28438988104634      0.06821754496440
  C   2.86160425935585      0.06548158924288      0.08447521457268
  C   3.51547390521050     -1.12863618403159      0.01699018660560
  C   2.81739242245649     -2.42899733439903     -0.11978083162022
  O   1.63442020303513     -2.56278983804688     -0.35288373311227
  C   3.70618847216977     -3.60447030900751      0.00971517558155
  N   4.99030462097486     -3.56067799921945      0.07268101540888
  C   5.62797189425098     -2.35508547538646      0.08596488646877
  C   4.96221142482903     -1.16930293840343      0.08067461984357
  N   5.78005670737704     -0.02922671707866      0.13750721592869
  N   5.37028496785333      1.12628744747536      0.18860154309823
  S   3.69300734856048      1.55172056427446      0.20825453185524
  C   3.07911826642173     -4.97321703755118      0.02637111723428
  O   3.56605099384485     -5.91819119252190     -0.51744633177154
  C   1.84277607015088     -5.12368979119112      0.82527559513801
  N   0.92405127166820     -5.27901413374272      1.49122320308772
  H   6.70813052046053     -2.36558053145908      0.12415904671641
