25
Coordinates from ORCA-job 10199optt
  Br  0.97065218009288     -0.74548572134566      0.96903554612283
  C   2.69475405055681     -0.22564309199537      0.44947761234558
  C   3.62228646587024     -1.09653260122724      0.02735444078496
  C   3.55879873024261     -2.56666841197747     -0.24990839374807
  O   4.78359065503678     -2.84453084644621     -0.92526061004336
  C   5.68633399498344     -1.83320569108832     -0.74127195927779
  N   6.90469477046296     -2.11468187993615     -0.75911758975597
  C   7.94933515267284     -1.19466557753982     -0.39231577152554
  C   9.05743277651705     -1.99849714973076      0.29829484167997
  C   10.12103572847248     -1.11428910720735      0.76822613039382
  N   10.92843408408488     -0.38728422237334      1.13208290630932
  C   4.89250596842674     -0.60044459554343     -0.41304887067957
  C   5.11080662733462      0.72760931447610     -0.54551125710019
  Br  6.53530680384012      1.48623133791071     -1.50353708891776
  C   4.12676856905225      1.69962553815755     -0.02699900989121
  N   4.18767545023371      2.96568118772075      0.02195255717601
  N   2.97005481785710      1.10089306396998      0.48773580911139
  H   2.72700651348337     -2.83576710803191     -0.90116177493685
  H   3.51122263048917     -3.17264907431107      0.65892326998719
  H   7.60381581581406     -0.40589185474546      0.28141529370021
  H   8.36643422429182     -0.71552709289084     -1.27932017527708
  H   9.46959314502363     -2.73261268606459     -0.39397330562301
  H   8.64801457494652     -2.54156457344808      1.15060859663921
  H   5.05785051026030      3.32013261928818     -0.35897594318725
  H   2.27959575995346      1.75576822437978      0.82829474571315
