26
Coordinates from ORCA-job 10197optt
  Br  1.59319740244544     -0.06904920385443     -2.14372523697995
  C   0.81732464548950      0.74130064174143     -0.63937905101895
  C   1.22131467396914      1.91931912851330     -0.11877037418067
  C   2.08865122654126      2.91666553576083     -0.84845030617935
  O   1.15521778448203      3.76790091141728     -1.53286728601024
  C   0.59596227974150      4.76974301394554     -0.78637040950491
  N   -0.62100181326418      4.90271697271282     -0.52093543302570
  C   -1.58428123372640      3.89506243716053     -0.91721826127885
  C   -2.55237251564494      3.54395509124458      0.23660910928917
  C   -1.88078815570788      3.00720654101199      1.53898719240568
  C   -0.78918597989635      2.08348332678650      1.12635197933764
  O   -1.21376792484849      0.91963086969305      0.60424694332030
  C   -0.37071768182481      0.06653744923651     -0.10743156949179
  O   -0.72591019469109     -1.05267060645465     -0.29181519375815
  C   0.47798550566361      2.49234190154862      0.96336190835972
  C   -3.40268291735014      4.68634291950021      0.57686357469302
  N   -4.07526022394962      5.57042678423688      0.85703230270206
  H   2.71223859351250      2.45995091545487     -1.60965146433985
  H   2.70422798695025      3.50089426940873     -0.15886722935706
  H   1.31690279142785      5.50194209701333     -0.41930322034223
  H   -1.11628926769713      2.97478299705790     -1.27836340255446
  H   -2.18452559201744      4.30170551146994     -1.73325761885247
  H   -3.20944429199250      2.75899695690806     -0.14579678457366
  H   -2.63679437475827      2.52318271748719      2.15639108528408
  H   -1.44732473105969      3.84024202112784      2.08988260154053
  H   0.78932400820589      3.42738879987111      1.40147614451608
