22
Coordinates from ORCA-job 10207optt
  Br  1.14850504108692      0.03873311294558     -0.10444096446001
  C   3.00784825741858     -0.08532512891422      0.06395825640775
  C   3.66899244361014     -1.25185920355316     -0.06038329224494
  C   3.05129351344232     -2.59764772052359     -0.30236787411138
  O   3.59556575757493     -3.56968367498067      0.58959183779740
  C   4.93660104821565     -3.61701864914621      0.71916968207867
  N   5.55740311114745     -4.42946101986893      1.43859508268197
  C   5.71657455730119     -2.57389989180521     -0.06959909480164
  C   5.83642508169878     -2.97627295702852     -1.48184802766921
  N   5.88293465533986     -3.29037139724241     -2.58159014622246
  N   5.05181168487059     -1.26943572633078      0.03938575980849
  C   5.70624390689540     -0.08160376072764      0.20485004231321
  C   7.21515049409309      0.01166751942302      0.11826933383630
  O   7.93492637624922     -0.85275519142136     -0.28693901639992
  N   5.12963505248814      1.04951017168238      0.37164605400787
  C   3.72892337913063      1.16305573847838      0.37385115278485
  O   3.18112505625351      2.20465091748882      0.61181880195973
  H   3.21320754019831     -2.90932130461943     -1.33884383934178
  H   1.98634756580408     -2.56442447213353     -0.10320329585576
  H   4.92375406944792     -5.08148870195669      1.90076583546404
  H   6.70973467699903     -2.52437483195835      0.36032578536670
  H   7.56799673073411      1.00632617219257      0.42798792660010
