26
Coordinates from ORCA-job 10210optt
  Br  -1.50565182995606     -0.83930408097163     -0.40230624299591
  C   -0.09277352218759      0.28110757294281      0.27383108779104
  C   -0.34484954008179      1.53279053552188      0.77039573100006
  C   0.66887480827255      2.08193379522706      1.77850729123981
  O   1.21141421588218      3.36134248670358      1.42529528249611
  C   0.26381108551540      4.29438075119530      1.28531288660459
  N   -0.87557064322477      4.13142377315946      1.78824381404628
  C   -2.02192857326044      4.74282271557534      1.19880306426833
  C   -2.62986322053383      3.57522049981511      0.38892104499276
  O   -1.75485847316167      3.18436973970763     -0.65215115986921
  C   -0.72653223581364      2.33612178995255     -0.42700244490294
  C   0.23978118389092      2.20083160084241     -1.36392694644071
  C   1.33116895754134      1.18764682927425     -1.26864292126405
  N   2.35126832552164      1.09767880754269     -2.00562831576204
  N   1.13705281749712      0.14811229427137     -0.28995977826090
  C   -3.89914484306010      3.97318285420584     -0.23259724991943
  N   -4.89528312602307      4.33652780387699     -0.66403068173176
  H   1.52075523239143      1.41113077356065      1.85904478015556
  H   0.17878989586762      2.16423531247351      2.74808843026008
  H   0.58610636641202      5.12515908325995      0.65270141416396
  H   -1.81005314074548      5.57869187027293      0.52080029696395
  H   -2.74316989651380      5.05842710214231      1.95269956818816
  H   -2.80093443180644      2.73493870885976      1.06742403587134
  H   0.26456895324567      2.84013603854012     -2.23751781042760
  H   2.36753301403743      1.82899811287032     -2.71097037904554
  H   1.53948862029337     -0.74490677082225     -0.54633479742192
