23
Coordinates from ORCA-job 10214optt
  Br  0.91517661068944     -0.30669099297949     -0.33979701881222
  C   2.77484248494718     -0.14742091770957     -0.07407855938965
  C   3.59187649675569     -1.21058163440863     -0.05199917956791
  C   3.15585864753723     -2.63804328887829     -0.22370078549641
  O   3.84214602637180     -3.50820906773639      0.67905715426940
  C   5.18845858499312     -3.40745006365033      0.79184416646632
  N   5.87571219712224     -4.18388135191979      1.49859747363164
  C   5.84299588988555     -2.27156055720681      0.03020167997500
  C   6.06327343987946     -2.66609520435328     -1.43970368915322
  O   5.49565507926795     -2.12010450707560     -2.34697200935708
  C   7.01484851025241     -3.74294624416540     -1.64418462552758
  C   7.81069553766088     -4.62744664779983     -1.77550806297851
  C   5.02158171300530     -1.00878411632769      0.10754875772908
  N   5.65656988781450      0.08246275289696      0.30632116016976
  C   5.02989216592284      1.32007972622436      0.39555030913333
  N   5.61282811003881      2.40512728536304      0.66146907803335
  S   3.27203817506166      1.49276211945866      0.09899900216420
  H   3.32964776820609     -2.96810521980966     -1.25172576578083
  H   2.10230946326253     -2.75906183078112      0.00661233604278
  H   5.28714606610614     -4.89422448736027      1.93409648502414
  H   6.82321724679929     -2.10859314226817      0.47475664772760
  H   8.51990320333515     -5.41258207962061     -1.89866469940926
  H   6.61032669508466      2.23434947010798      0.78728014510609
