23
Coordinates from ORCA-job 10211optt
  Br  1.45796322910494      0.00046715593959     -0.52617240347340
  C   3.30843819400747      0.09867731107949     -0.25670572830779
  C   4.01620831230849      1.27412011401939     -0.15185376782491
  C   3.41369923634998      2.63179225887592     -0.26360949110976
  O   2.23491194718191      2.82793185433124     -0.48797945831665
  C   4.35023902882315      3.75135547471662     -0.08420622237100
  N   5.60567955421633      3.62576088668750      0.14327171049532
  C   6.18612757935704      2.38833211460854      0.23405640626297
  C   7.59834641673361      2.36553277916529      0.50002121615857
  O   8.28703703181612      1.35375196486002      0.61093653878192
  C   5.44422543568827      1.21124951767999      0.08987112910568
  N   6.07154467801630      0.01771982810242      0.18527261014065
  C   5.39234329902930     -1.15654814307102      0.06848224213114
  C   5.80150088430351     -2.46580068311999      0.12845090254556
  N   4.66927656321809     -3.22154154256379     -0.05933929070039
  C   3.57114212231269     -2.46298125753863     -0.23210029458534
  C   3.98332033888436     -1.13966262080155     -0.15785748424808
  H   3.91757055244460      4.74400527242081     -0.15873667669929
  H   8.04962417201646      3.36379599043119      0.60770642661155
  H   7.08138643032259      0.08255922305624      0.36756766183658
  H   6.76753147990400     -2.91032547168522      0.28346746911095
  H   4.66423703668788     -4.22801659084403     -0.06680084176373
  H   2.59464647727288     -2.88417543635002     -0.39274265378055
