25
Coordinates from ORCA-job 10213optt
  Br  2.80296354220356      0.24346870270508     -3.72444112653595
  C   3.44938947456674      0.55156629095043     -1.99420766198737
  C   3.78364384678750      1.73719824082703     -1.49202866566414
  C   3.42444127175745      3.06395857012035     -2.09240109885395
  O   2.00170792575796      3.28324697001372     -2.02771772873905
  C   1.40562401005081      3.16434908201896     -0.83671784660652
  N   2.02563601770238      2.99597935953211      0.24234744281481
  C   1.29859285707188      2.74139026435233      1.45716099709700
  C   1.76610471365365      1.47614321853216      2.18862634255659
  O   0.98921728185810      0.86324361643551      2.86751139041193
  C   3.23891371300528      1.04827455603940      2.12018497016532
  C   3.65196408776054      0.70149045552971      0.71963416062619
  C   4.32969044748521      1.71787842293995     -0.11930705497158
  N   5.23209100194743      2.53291508397171      0.22617832772404
  C   3.33134280991672     -0.42773410442812      0.08631649991950
  Br  2.56389437656216     -1.93858468410775      0.87963786362379
  O   3.49256799907859     -0.59334420857198     -1.25849268120255
  H   3.65714854708628      3.12054588499731     -3.15255958080256
  H   3.94557376876485      3.84954830965691     -1.54613509248448
  H   0.31940925658319      3.21449696544306     -0.94366545124884
  H   0.21444642014549      2.65541859569185      1.32864981662492
  H   1.48753573332936      3.55839377652439      2.16420551440088
  H   3.84956770950649      1.87772963797253      2.48380870141425
  H   3.34609124297504      0.20552953510883      2.80093424346899
  H   5.49244194444332      2.42189745774451      1.20547771824877
