24
Coordinates from ORCA-job 10218optt
  Br  4.87390451253984     -4.23299431399643      0.42640075349988
  C   5.69396699377950     -3.23572248760755     -0.96479821609218
  C   5.67655924086333     -3.68162866556134     -2.29086503384233
  C   5.97367707220536     -2.55609407238011     -3.21372763688431
  O   7.20382031775846     -1.89923099919939     -2.76618405949099
  C   7.37904655497616     -1.90835906386362     -1.48101728014847
  N   8.63619066021348     -1.73784520384053     -1.06947465748949
  C   9.73091460027233     -2.07738777728773     -1.93816785849419
  C   9.69805408499850     -3.26926437261920     -2.53375358236908
  S   10.73216152788861     -3.81263462161273     -3.81338907047289
  C   9.82047028001869     -5.24879673658560     -4.53068934165707
  O   9.97636725740385     -5.40676307453744     -5.70141499397970
  N   9.23578882385922     -6.15304758650796     -3.67517010609404
  C   8.03312974741923     -6.13252145095774     -3.26505196442242
  N   7.15227876949796     -5.10005834180474     -3.47548433366305
  C   6.27537212052298     -4.94369158368863     -2.52541632804572
  N   6.41394025398958     -2.19132995839358     -0.58550587406424
  H   6.18738709838239     -2.88827597262974     -4.22386189394475
  H   5.19276694497186     -1.79613395589114     -3.19887284732844
  H   8.75604770556529     -1.73617037405274     -0.06546588815985
  H   10.46773962203498     -1.30857440812232     -2.12127655780895
  H   8.89912632106439     -3.95366974118425     -2.27677724408378
  H   7.71845762271307     -6.96519304483614     -2.62751128679001
  H   6.12883186706091     -5.71361219283928     -1.75952469817391
