24
Coordinates from ORCA-job 10216optt
  Br  5.62214515530974      0.33015453748179      4.12537073794502
  C   5.86304118724181     -0.97780905709096      2.80493691067911
  C   5.74147649749496     -2.28449991064424      3.09333998105880
  C   5.91404959774206     -3.17084017411808      1.90273776382004
  O   7.17603851247176     -2.84987111391938      1.29260495761234
  C   7.35360352303356     -1.55294425363817      1.05329056188870
  N   8.57245892382408     -1.28556517716625      0.44948904662819
  C   9.59793871279241     -1.80791533841544      0.98612748491008
  C   9.63355136627494     -2.70366958344421      2.23225251142918
  O   10.40047113079565     -3.62496007986536      2.24852138272583
  C   8.78272868317099     -2.32472508116960      3.43917521110711
  N   8.66567700070468     -1.10476206761466      3.76477644005080
  C   8.22314040858281     -3.40710332379637      4.27350338914203
  C   6.96642016967261     -3.54123382462557      4.73243386107149
  N   5.81743747951928     -2.84228442737635      4.39264492044210
  C   6.49629682334661     -0.60874054134120      1.54207350771537
  Br  6.67243123104779      1.17722008310301      0.98569114073129
  H   5.97110643973628     -4.22229080255303      2.16864461066985
  H   5.14245824727509     -3.00018903635551      1.14560012520584
  H   10.56565638414796     -1.66691163683220      0.50888238291515
  H   9.11163785338846     -0.47773825547498      3.08880421933517
  H   8.93687761996038     -4.15527898894196      4.59394640028680
  H   6.78378514914144     -4.32792218674843      5.45629581722484
  H   4.96757190332453     -3.22611975945283      4.77485663540485
