24
Coordinates from ORCA-job 10215optt
  Br  1.39761563580599     -0.73002243269610     -0.95243428069212
  C   0.53215722126325      0.54413965741668      0.10923686179873
  C   0.95037682709685      1.81162535891888      0.21192526403098
  C   1.88661083230770      2.52014718156494     -0.72663874093248
  O   1.10107715760610      2.94561611599170     -1.85512002584239
  C   0.07252348274016      3.76995486207985     -1.52954076891287
  N   -1.11826732197529      3.38872162135697     -1.58965769134671
  C   -2.13793227071977      4.29243120405067     -1.10272252964607
  C   -2.82385220832855      3.65848941426267      0.12333237427941
  O   -1.89939454741779      3.49590958309465      1.20819115800041
  C   -1.13397528073233      2.37879782082635      1.10428245519112
  N   0.19384523384286      2.67372314087609      1.00327064254748
  N   -1.61851902015360      1.21193474831225      1.02664360998901
  C   -0.73839947156865      0.13740703522181      0.78037856991800
  O   -1.03707966027425     -1.00036793135627      1.00401571836108
  C   -3.88568855623988      4.55121450262184      0.59982652330289
  N   -4.69921888149543      5.28616084485366      0.92698371597540
  H   2.64769991397969      1.85884613403565     -1.12525754815150
  H   2.35914991593378      3.38357561989597     -0.24543948438529
  H   0.38554057640751      4.76666710209902     -1.18396294170557
  H   -2.90170316809622      4.43329744408376     -1.86951267968474
  H   -1.74947190044058      5.27627598629960     -0.81149269794486
  H   -3.24545354369272      2.68435039246567     -0.13288754777194
  H   0.43035903415119      3.65410459372361      1.01958004362204
