24
Coordinates from ORCA-job 10226optt
  Br  1.11850496321461     -0.11909171942162     -0.20891818070358
  C   2.97106400541132     -0.03203744637882     -0.04295148949686
  C   3.74621747604095     -1.11894550567833      0.05011936054175
  C   3.36475848024837     -2.55886198462128      0.07382436641574
  O   2.29009884870044     -3.08201487356170      0.05263564531604
  C   4.68412571194861     -3.31088222354916      0.14454547073739
  N   4.87978068286635     -4.55145577332784      0.21223867100555
  C   5.75873402920546     -2.29932512795351      0.13293588409485
  N   7.04043706056421     -2.76560746307393      0.14111474429129
  C   8.15509206899577     -2.27052259973786     -0.54576512382609
  N   8.25116099098172     -1.26279847752397     -1.29276079707114
  C   5.20657623386588     -1.05115780445846      0.15557779453535
  C   5.82518957209854      0.26120099178797      0.37294654556600
  N   7.00289348762293      0.52987166170970      0.76447849582253
  N   4.96502580271671      1.32959987923570      0.14620348336545
  C   3.58711556956180      1.31954871788516     -0.02725872846346
  N   2.86515213675476      2.35240612851210     -0.15726681006318
  H   3.98786934919660     -5.05415622274162      0.22500195716682
  H   7.07895035535022     -3.75975047103805      0.34514182648131
  H   9.02880612117018     -2.89474546999994     -0.37076681371459
  H   7.38072470186479     -0.74818577017350     -1.40914230605994
  H   7.57168372185065     -0.29836245599130      0.89618005142796
  H   5.40055116352989      2.22966134253263      0.29604558739807
  H   3.40948746623915      3.21261266756763     -0.12815963476726
