24
Coordinates from ORCA-job 10222optt
  Br  2.05275875738438      1.38997424000530     -0.92672935637572
  C   3.73491457590499      0.65089246991091     -0.53054664001158
  C   4.83118128146952      1.38839167971317     -0.20228471502291
  C   6.02435712640691      0.58467145492506     -0.01168223963151
  O   7.18313998398174      1.23188608737287      0.25271952658031
  C   7.21588747648389      2.25786851129165      1.19347336648578
  N   6.89772015241292      2.14121317579637      2.39284297101348
  C   7.72668162037819      3.52136238766255      0.56372431159855
  N   8.69708722149241      4.11251305208863      1.11631689469813
  C   7.05905770958913      3.92873755301321     -0.69137208801468
  C   5.80655750957074      3.61783165886373     -1.00540564031939
  C   4.83882198397451      2.87688992725976     -0.13165139163399
  N   4.04183172250088      3.57632058183134      0.55582135463526
  N   6.10631887364915     -0.68793680683233     -0.11592633179460
  C   4.98575680274064     -1.42185348955679     -0.46094681162521
  N   4.91387945622729     -2.67434477004798     -0.61922537844749
  N   3.79677028906928     -0.68363649540429     -0.64128637617479
  H   6.60078670355968      1.19127372846880      2.62130905180052
  H   8.96366831876432      4.94411661393696      0.58553898984131
  H   7.64381464239777      4.54894714552986     -1.36143130497301
  H   5.38357007411733      3.97559254229107     -1.93857547122048
  H   3.41438818944139      2.99288797078485      1.11139724010061
  H   5.82590161273724     -3.09194680611175     -0.45927595926706
  H   2.98114791574563     -1.22165241279297     -0.89780400224152
