25
Coordinates from ORCA-job 10221optt
  Br  1.22522270130866      0.91383150553952     -0.32980669213971
  C   2.99050198935141      0.42588637196769      0.03964858980660
  C   3.98064740015730      1.33027909392347      0.19277866676899
  C   4.02836547094921      2.82258139825842     -0.04123081866881
  O   3.14947452701371      3.62458897973210      0.05638976554626
  C   5.49285908528676      3.15601403255598     -0.41264369093512
  N   5.76801359518662      4.53308762171012     -0.14319364885448
  C   6.92898127915758      5.12938368293525     -0.57326923655398
  N   7.24416209512966      6.35490354984653     -0.55285799284874
  C   6.30274282708265      2.09026063214216      0.36068802667749
  N   7.46241850444310      1.45244680718909     -0.26538647741587
  C   7.38781785674064     -0.01267502904922     -0.03498978216108
  C   5.90573838846745     -0.22389662877180      0.16825610354891
  S   4.95780137791662     -1.63582071163079     -0.02164943861240
  C   3.24085480801004     -1.03448383288705      0.08849147985112
  O   2.39268772185313     -1.87735991261675      0.11148869781612
  C   5.33154967192065      0.96030102634206      0.37839427062207
  H   5.58945759501995      2.89992308749570     -1.47980517186006
  H   4.96044944835430      5.11587156039151      0.03678314369604
  H   7.65486830262989      4.40962028962779     -0.95782533624277
  H   6.49476120742660      6.93485595399837     -0.17321402595442
  H   6.50896657659273      2.48456271546135      1.36495684518908
  H   8.34312199067268      1.83480823183876      0.05144789623614
  H   7.95659566801436     -0.34039678249932      0.84368709178107
  H   7.75693991131421     -0.56257364350100     -0.90213826529245
