21
Coordinates from ORCA-job 10239optt
  Br  1.14985978699183      0.12349671989389      0.52535436100146
  C   2.99993769696295      0.02728506685033      0.27509737989278
  C   3.63979433206254     -1.12304688243277      0.00691286964870
  C   3.05457184604310     -2.49184979515662     -0.15418369941256
  O   3.66023156093616     -3.40092939638451      0.75113805324448
  C   4.73518666229057     -4.13774153893442      0.33926133543540
  N   5.00022774965321     -5.26705628293601      0.80233210527284
  C   5.73189111994819     -3.50217346645640     -0.63294220465260
  O   6.38650937624528     -4.17834290520927     -1.36684397842729
  C   5.94979208034452     -2.03188823432032     -0.54023815173378
  N   7.10135201540883     -1.45202136965867     -0.71837793018536
  N   6.97376570190316     -0.11679638197088     -0.48364052189516
  C   5.72470468683925      0.08249533055730     -0.16868708013519
  N   5.07875740258995      1.24263106046510      0.12589111522172
  C   3.71838868675834      1.32868084354184      0.37991184663377
  O   3.19241656451030      2.37494391434762      0.64826830763575
  N   5.01461953514208     -1.07630316928941     -0.17181865092207
  H   3.18976541491684     -2.82415027612493     -1.18966331134853
  H   1.99308933651812     -2.47771556293868      0.07131787707067
  H   4.29064538980091     -5.56675778130502      1.47205166396596
  H   5.60849305413383      2.10424010746185      0.14385861368902
