25
Coordinates from ORCA-job 10232optt
  Br  1.80515907570475     -1.64134892957294      0.91854464762792
  C   2.74010266609546     -0.16072392809866      0.25458060867465
  C   2.14352147604732      0.86258145877110     -0.39492879797575
  C   0.64701879400789      0.94194676468039     -0.54990883907575
  O   0.07620042074889      1.38269291876593      0.68596353822183
  C   0.65159868766483      2.50807225535628      1.20303122554743
  N   1.23070313994102      2.43644929910794      2.31099639965020
  C   0.45512910488829      3.76368105758626      0.36392480685022
  N   1.67164663331774      4.52165109004566      0.12135387630024
  C   2.40862754061074      4.37697013644853     -1.02902902640584
  O   2.97593619816234      5.29930934825322     -1.56534544903232
  N   2.43389179497827      3.07816128426117     -1.57123356294953
  C   2.96093055043543      1.98361614326135     -0.80684719300969
  C   4.26719829734746      1.96769451428081     -0.49677694934023
  O   4.85831819693585      0.95628049917993      0.14289856998473
  C   4.18099498595111     -0.18550745389954      0.52981392266686
  O   4.79700040045314     -1.06236663740664      1.04643898649433
  H   0.21879429864888     -0.03888295364454     -0.73397453238387
  H   0.38957291772160      1.61345506851509     -1.36862931492113
  H   1.57662221396066      3.35279371062705      2.59400624608815
  H   -0.23173001436733      4.40483089011761      0.91743541039924
  H   -0.03291635590426      3.51218461371361     -0.57653062449950
  H   1.67174917073321      5.48191649008417      0.42875894407203
  H   2.85337886253291      3.13855985812792     -2.49069812694558
  H   4.95255094338378      2.76798250143830     -0.74484476603863
