22
Coordinates from ORCA-job 10231optt
  Br  0.99827022732902     -0.07684589494112      0.08149351493286
  C   2.86354907313372      0.03231741573085      0.07766775499470
  C   3.54214265791278      1.20296750527003      0.07369724786963
  C   3.15569113935727      2.60543655643328      0.07063026478517
  O   2.09860150712483      3.17500665361627      0.06990574792913
  C   4.52816525035941      3.29243501963070      0.06751009017724
  N   4.58373603570178      4.63442528322625      0.06432352305263
  C   5.74349397990362      5.40509786357177      0.06269287567540
  N   6.94825339528772      5.03240623573735      0.06420258974956
  C   5.45997649753605      6.88272110944393      0.05854433197449
  O   4.34413264652020      7.31859171742294      0.05635496362272
  N   5.52452734465518      2.47372089731829      0.06867046780222
  C   4.98298299305231      1.17242894252250      0.07220583034560
  C   5.68203298878118      0.02087230206625      0.07403579630013
  C   4.96624503845329     -1.24190430327334      0.07763905356871
  O   5.44721522392716     -2.34871392555737      0.07924861039866
  N   3.54483875902961     -1.12716901210132      0.07930375126552
  H   3.70122698167434      5.13904895323610      0.06318288426216
  H   7.03931781894102      4.01590344985149      0.06679254172786
  H   6.36478169139220      7.50902438812466      0.05778008398692
  H   6.76113446239094     -0.01177984896417      0.07290117672508
  H   3.05068428753634     -2.00999130836537      0.08221689885359
