27
Coordinates from ORCA-job 10230optt
  Br  2.67752275991827     -0.60285921075124     -3.06804068869491
  C   3.29607858947483      0.14346451145365     -1.45290406864282
  C   2.69237941837652      1.14354597114261     -0.78882095154982
  C   1.44402395729568      1.80714686189799     -1.29821438783218
  O   0.43086956165480      1.80400643633269     -0.29608101146420
  C   -0.02060330806247      2.92112660330220      0.30526038048401
  N   -0.85789720885076      2.75832238213424      1.23200199089813
  C   0.44654134763235      4.27486065283004     -0.19960866899219
  N   1.85786877204742      4.60340891432369     -0.06764939895287
  C   2.92322442587041      4.02103053925571      0.55945807259308
  O   4.01050465745797      4.55336127401207      0.51741913626213
  C   2.77230498250526      2.68871537282376      1.28388585552088
  C   3.34237943085431      1.56776859471777      0.44803741654480
  C   4.47634041999823      0.96662394351932      0.84182844730459
  C   5.08943433157818     -0.11063008447423      0.08768467580719
  N   6.13029696431253     -0.77599974091651      0.32597450900838
  O   4.42110478667531     -0.45943923157579     -1.07983555419911
  H   1.04489523111325      1.25001105298869     -2.14059464084697
  H   1.66243496686361      2.81855344390908     -1.63868060863574
  H   -1.14821851173492      3.64661539306021      1.62668727870692
  H   -0.15012215807408      5.02101342572220      0.32554861080231
  H   0.17972912804305      4.34049982704662     -1.25975683296665
  H   2.12933366773321      5.47482776957134     -0.50333748703614
  H   1.75667936449244      2.46750626848238      1.59783497023307
  H   3.38335353742911      2.78997414334322      2.17816248854067
  H   4.98231296352819      1.27123355730475      1.74758657539376
  H   6.56222792186725     -0.46068867145651      1.18915389171367
