22
Coordinates from ORCA-job 10241optt
  Br  0.99511881874350     -0.00576657696705      0.29503181424553
  C   2.84110682250533      0.16166350346091      0.18079540137689
  C   3.53943275431490      1.33178657377003      0.13363722323695
  C   2.92622791733481      2.66328374512009      0.15358709033329
  O   1.72499725411644      2.88544519809327      0.22239051370307
  C   3.88028426995885      3.78877754276235      0.07702836934991
  N   3.22423613405732      5.00761976793845      0.08251897466956
  C   3.77847942750718      6.25056471629551     -0.02269857920502
  O   4.96270425353250      6.47418414818978     -0.12091099701839
  C   2.77750429679644      7.31549915427742     -0.00641561624187
  C   1.96467430089439      8.19303264567274      0.00561810044689
  C   5.22765283020490      3.60074711733379      0.01109221414598
  C   5.78246929851101      2.28900195476095      0.00287441008938
  C   4.97850218862852      1.19983008095056      0.05713529408133
  C   5.48274007773024     -0.14591733372596      0.04073123668388
  N   4.78893584045589     -1.21523786945630      0.08083640136390
  O   3.39474766634270     -1.03891735415782      0.15316657019537
  H   2.21515001192260      4.92358878589591      0.14621006300194
  H   1.24790156804428      8.98003542052546      0.01461873820861
  H   5.87840468250723      4.46003456766228     -0.03634374823450
  H   6.85640525504157      2.16828019571300     -0.05086243982979
  H   6.55132433084933     -0.32653598411539     -0.01304103460293
