25
Coordinates from ORCA-job 10251optt
  Br  5.17064703004454      4.00582131366984     -0.16823284546559
  C   5.71751415165155      2.85037350880260      1.23414637970075
  C   5.69650841166078      3.24379467711249      2.53909169057686
  C   5.99271172823980      2.09067284179877      3.43356358639750
  O   7.21179744777849      1.44232307261245      2.97584693410075
  C   7.32631292491682      1.39050468433735      1.67760661971370
  N   8.58835403185476      1.04281630005179      1.28917489765869
  C   9.75810468601420      1.57652857068716      1.92055146825843
  O   10.82591278565947      1.05776206873442      1.75484512856733
  N   9.54630809122031      2.73933362540255      2.61895501539770
  C   10.46379383182432      3.25240439558736      3.52460022234897
  N   10.44474426661012      4.39387043105243      4.07527151607465
  C   9.58975041251690      5.46955221376699      3.85241796862654
  C   8.26744902710284      5.56120363159349      3.62102903393163
  N   7.44485790157369      4.45670555742975      3.45894732424472
  C   6.30931701858166      4.53621415051098      2.87601091418990
  N   6.40480693016077      1.74745909523724      0.81626700723179
  H   6.19314802288050      2.38484709649850      4.45786932667358
  H   5.20795779585839      1.33468425952017      3.38413964172601
  H   8.71189399698319      0.79975354298987      0.31640353338569
  H   8.62587889616362      3.17220193211082      2.67841155426437
  H   11.27241395188708      2.56583756673465      3.75877664965042
  H   10.11210405659602      6.41569953581611      3.94520962374753
  H   7.83640885992931      6.55475651056896      3.51346485087520
  H   5.89430374229071      5.47487941737322      2.50163195812286
