23
Coordinates from ORCA-job 10256optt
  Br  2.32699568357815      0.93398596526123      2.10246046290398
  C   3.59221707966633      0.39715534178856      0.83395218382403
  C   3.73387587553085     -0.86027051392429      0.36339892765889
  C   4.96887063558207     -1.11507553825910     -0.35044105201470
  O   5.62264340962214     -0.06076318448487     -0.95093508506420
  C   5.43317811882519      1.20994406099070     -0.52358529181527
  N   6.05701609493011      2.20606753126375     -0.95862565239186
  N   4.47524532374565      1.37236048457903      0.47389013316083
  C   5.48720392636562     -2.34830039100552     -0.39468149341695
  N   4.89858950452039     -3.39629586406830      0.30915122808119
  C   3.75709225226426     -3.26002005646685      0.83204895499515
  Br  3.02427720175875     -4.68091093733697      1.84327775787888
  C   2.90357038682185     -2.04768721847709      0.64394103159723
  N   1.64549067347465     -2.18772795944091      0.61376097486935
  C   0.76289512372923     -1.14182844223029      0.14185241589886
  C   -0.21878599133006     -1.70228047348818     -0.78955739814287
  C   -1.01640539543935     -2.13820360221307     -1.56749616071644
  H   6.74908375892649      1.93804325832678     -1.65154748934746
  H   4.37008857465532      2.31620599042113      0.81313284271530
  H   6.41052299237712     -2.56315100159942     -0.91180086683112
  H   1.28937920255772     -0.31699689064831     -0.35178012345017
  H   0.23055015290031     -0.71990491596497      0.99905917284527
  H   -1.72259458506285     -2.53234564302301     -2.25847547323793
