25
Coordinates from ORCA-job 10253optt
  Br  1.16892353824906     -0.26258242329996     -0.49573872677618
  C   3.05828524152606     -0.18375223725193     -0.30234464958612
  C   3.85222288070777     -1.33093039157966     -0.39529428134233
  C   3.19655970122457     -2.64955089818965     -0.79665273778930
  O   2.66571304896604     -3.44464589287684      0.27963922542808
  C   3.31555251295240     -3.75786232414267      1.42946972232871
  N   2.79002194512720     -4.42334660920548      2.35043740481717
  C   4.72972965166149     -3.24373602189615      1.58146771408756
  O   5.14285827403185     -2.64893864646492      2.52260992778812
  O   5.42350536554168     -3.49423630808441      0.45065432768031
  C   6.14938767790484     -2.37952299496745     -0.06190795687781
  C   5.22954945983423     -1.18200253225985     -0.15514039626763
  C   5.76568721256688      0.07059074482774      0.10134028059372
  C   4.96008173434647      1.19624316024694      0.13451928759547
  C   3.59535443987703      1.06906184684566     -0.04873710944867
  C   3.96521805929010     -3.43945977408863     -1.76363921011319
  C   4.51072199570006     -4.05067843641654     -2.63568826751788
  H   2.28512261847257     -2.37851568482954     -1.32667108372922
  H   1.83922172354125     -4.70018667351739      2.10438456412343
  H   6.50886626530202     -2.70124548966945     -1.03786661178744
  H   6.99513138502307     -2.14389843848222      0.58392365256953
  H   6.82541279318872      0.15692656618815      0.30700392467422
  H   5.38769433767662      2.16947787849286      0.33558650065183
  H   2.94442388227651      1.92968091709302      0.00886939100604
  H   4.99875425501144     -4.60988933647161     -3.39822489210843
