20
Coordinates from ORCA-job 10267optt
  Br  1.15423246741762     -0.15245942828306     -0.80820847761686
  C   2.93742074104629      0.03775881220684     -0.28431190027493
  C   3.53111642003096      1.22144183910692      0.01774717661017
  C   4.95878436837707      1.17719828698439      0.19706264715434
  O   5.61412473794273      2.34017174565647      0.35399147853485
  C   4.98579256890262      3.55694425569167      0.07672195767051
  N   5.66880106916000      4.57205727083722     -0.18261546769445
  N   3.59915462998405      3.61167661080097      0.17152709790855
  C   2.92361369676271      2.53110833535454      0.16105920340473
  C   1.45924654403026      2.70580231372249      0.53237367649551
  O   1.02739836791957      2.14053631933878      1.49803345049832
  C   0.69216525763936      3.62077306710929     -0.28499998136472
  C   0.05729853201892      4.34801882971163     -0.99309434145678
  C   5.65383906549825      0.02069021164560      0.20969294311739
  C   4.98075763610625     -1.22705195433958      0.00004000344809
  O   5.41250063643719     -2.33107966399127      0.01004586247698
  O   3.58232570459517     -1.10245674416038     -0.30743444833868
  H   6.66109940473530      4.34634285509891     -0.21418666491221
  H   -0.51398458231364      4.99857059360075     -1.61353065661985
  H   6.72231273370928     -0.00204355609218      0.35508644095903
