22
Coordinates from ORCA-job 10262optt
  Br  0.97542143938314     -0.10952267282388      0.01309880625331
  C   2.83969661828043      0.00610629500921      0.06262962383649
  C   3.59940985639957     -1.10553419609054      0.13687959241699
  C   3.25642061202073     -2.55709488107670      0.20306621174571
  O   4.52783471468637     -3.20432667947588      0.26638418875435
  C   5.54755616977482     -2.31250372194590      0.24385320482037
  N   6.77083677070843     -2.51488320103634      0.28279223509968
  N   4.94807121873328     -1.02249549292678      0.16325673401066
  N   5.65397957015457      0.09400504140299      0.11871408064590
  C   4.98310392432924      1.20165462414269      0.05074439173663
  C   5.77344094360605      2.43511281168304     -0.00617825491281
  N   7.09071051514993      2.52384763651942     -0.01659989057568
  C   7.29849196403526      3.85397648971162     -0.08168951020038
  N   6.19905262567796      4.58752728688860     -0.11197834003161
  N   5.23846164860419      3.66881535057777     -0.06267844007265
  C   3.49579377142119      1.29541118018556      0.02462597206202
  O   2.90849173792491      2.36328673709642     -0.02390278723372
  H   2.71507170334714     -2.88838873593606     -0.68407923154065
  H   2.67330043091184     -2.79935400534679      1.09248179411183
  H   6.98624637166926     -3.50632971032052      0.33966120445108
  H   8.27863224199867      4.30030590407683     -0.11042235621805
  H   4.25297515118297      3.89338393968523     -0.07265922915947
