22
Coordinates from ORCA-job 10269optt
  Br  1.07914603962685      0.19459068750133      0.06395735816034
  C   2.93252404427888     -0.05440004122136      0.06723292826463
  C   3.56659113715120     -1.26582642009064      0.06924371663466
  C   2.86838018391236     -2.55789740741336      0.07002279785323
  O   1.67087844218806     -2.70065712699367      0.06946941757317
  C   3.73247711933313     -3.82064427758690      0.07191570549480
  N   3.23180223099878     -4.97948564900670      0.07287848384057
  N   5.09828240655471     -3.64926205523457      0.07253621385948
  C   5.74977507967216     -2.43603088764271      0.07213830495807
  C   7.13593902085568     -2.35397488625328      0.07308280631715
  N   7.81448868686561     -1.20789723409181      0.07287590440256
  C   7.13183896112713     -0.07735619223651      0.07168804189795
  C   5.73646444329761     -0.04799347723184      0.07052217636272
  C   5.03006869786513      1.23327153259281      0.06901067582976
  O   5.52513021973646      2.33177937971253      0.06903391709798
  N   3.63045553093337      1.10516678404673      0.06725396385494
  C   5.01224293213902     -1.24231800551439      0.07068595765152
  H   2.21524757873142     -4.90317401971614      0.07219565456416
  H   5.63903725986363     -4.50251571976529      0.07381625075019
  H   7.72382465444231     -3.26737615875818      0.07399272861380
  H   7.68577539472553      0.85324123064483      0.07159531102913
  H   3.12562993570093      1.98275994425915      0.06585168498919
