23
Coordinates from ORCA-job 10268optt
  Br  0.95092598655776      0.08233383702553      0.14945728290891
  C   2.82505627651690      0.02073203767165      0.05328210101726
  C   3.49099167603423     -1.19710525111931     -0.05289698506434
  C   3.07519777204448     -2.58735313524471     -0.15374608477234
  O   1.98930490690661     -3.10301911686367     -0.17547803867338
  C   4.39694839751427     -3.38016596647159     -0.24523418242100
  N   4.55150909552560     -4.62042261410186     -0.36480908543430
  N   5.41173827276102     -2.43884521704880     -0.17631289859821
  C   4.89319804277136     -1.16790547177584     -0.08111247105435
  N   5.63975539809088     -0.08374288933779     -0.03306503075001
  C   4.97771554115617      1.07162862899711      0.05514151412461
  C   3.56337492470272      1.18066059604041      0.11142402677744
  N   3.00259317686355      2.45029971109785      0.26868465324458
  C   3.68085179958942      3.62697301792489      0.17002303578305
  O   3.14468738944592      4.70209948034688      0.27914769774641
  C   5.16485247597085      3.52245428475355     -0.12984606230355
  N   5.70940937624063      2.20574561112205      0.13204154404392
  H   3.63229112628711     -5.06521389733376     -0.39053589065941
  H   6.39379508573974     -2.64674107839713     -0.24901229617412
  H   2.00398710465874      2.52108681394636      0.41608207541471
  H   5.66312032676874      4.26513930026496      0.49054983325398
  H   5.29585435053694      3.81963503853633     -1.17662739973816
  H   6.70584149731628      2.07272627996689      0.04784266132833
