22
Coordinates from ORCA-job 10261optt
  Br  0.95357090104421     -0.11704268324492      0.00042010899854
  C   2.83302153979588     -0.01449752984362     -0.00452356568320
  C   3.56729810977915     -1.13035000555225      0.01829040496679
  C   3.20409160958791     -2.57889122587495      0.04722302697745
  O   4.46804395044475     -3.23756460000919      0.06418475767210
  C   5.50361066056226     -2.35881893863908      0.04515535527662
  N   6.71949261779702     -2.62196077307784      0.05181085818448
  N   4.94311830690666     -1.05283918895269      0.01603866647089
  C   5.64544233641469      0.15672637470745     -0.00911487233080
  O   6.83426977682287      0.26519601845288     -0.00842917999668
  C   4.68612468276922      1.31621060678584     -0.03869964877261
  O   5.35700361954050      2.46841765605740     -0.07647940727283
  C   4.78163441483269      3.73387702932133     -0.14887800249182
  N   3.57526774549671      4.05975040509057     -0.12027755330772
  C   5.84646690105672      4.69826260734155     -0.27221145287117
  C   6.73255013482287      5.49341302613175     -0.37791656473387
  N   3.40996914489440      1.22346440359712     -0.03257197075919
  H   2.64200204339999     -2.88085486425819     -0.83799034874419
  H   2.63678696563969     -2.84614772414129      0.94005652045656
  H   6.86851819267769     -3.62797960368705      0.07408257541905
  H   2.95537629832906      3.25865781523764     -0.03640119133342
  H   7.51634004738503      6.20697119455754     -0.47476851612496
