27
Coordinates from ORCA-job 10273optt
  Br  0.81897642131189     -0.01264581164866     -0.42552486314651
  C   2.65695745058398     -0.24176251045516     -0.10744291089893
  C   3.22762077120802     -1.44472990103393      0.08049643966474
  C   2.52266259671976     -2.75718054132377     -0.09873356246080
  O   3.15876738161280     -3.45895914361554     -1.16325867880678
  C   4.27163420090946     -4.19126926955250     -0.91355174038584
  N   4.71821006072028     -5.04180356984057     -1.73186727050873
  N   4.85073206005511     -4.02596513684633      0.33740060436282
  C   5.33870246816289     -2.74773555675703      0.86675477171132
  C   5.20333279904316     -2.81941060439368      2.40612974719040
  C   5.88884492865856     -1.72376007102953      3.08036006558307
  C   6.46367925393982     -0.81368617938032      3.60578546698710
  C   4.65678383905185     -1.51507757261551      0.33236947253158
  C   5.36207850446037     -0.38464545190898      0.23288094999102
  O   4.81403490624997      0.81347534766888     -0.03487148429803
  C   3.44788266839702      0.99483182137740     -0.11016660899747
  N   2.95753638564123      2.14743362848159     -0.21869885027680
  H   1.49406828537016     -2.61382515666696     -0.41106251422667
  H   2.54462939782352     -3.35536703371951      0.81410803268464
  H   4.08562161545783     -5.14356135331164     -2.52096106609346
  H   5.53828944410890     -4.75773962175648      0.45672509561008
  H   6.40374156675715     -2.64503187088862      0.63544301396282
  H   5.61532307513996     -3.77191839271125      2.74765848373869
  H   4.14270811545630     -2.81765564026809      2.66993311205037
  H   6.96545242172017     -0.00983171977252      4.08984398769245
  H   6.43126353525818     -0.31574327700562      0.37600774866730
  H   3.68746584618126      2.85656458897450     -0.22375744232842
