21
Coordinates from ORCA-job 10287optt
  Br  1.98047468901577      0.28835641227184      1.45688937321903
  C   3.45610314040222      0.11900474032188      0.33647931075800
  C   4.07015049846450      1.10308922331631     -0.33572847647800
  C   5.38264995172290      0.76369814869102     -0.86534771599043
  O   6.03572600681701     -0.25996401692484     -0.21871631208846
  C   5.31060112150563     -1.32855510937268      0.19171030738118
  N   5.76283790618139     -2.45070538899659      0.46639306604359
  O   3.95224666468994     -1.12837047210988      0.32004164480774
  C   6.05923138159114      1.70199751743931     -1.54268704298360
  C   7.07820442216897      2.46258820694010     -0.76045284702178
  O   8.25299309747779      2.56551300359871     -0.80323729671711
  C   6.20505980611807      3.15682920587827      0.36731748995489
  N   6.81245343151323      3.43428900003275      1.43575267730817
  N   4.82126605953378      3.38736502096427      0.19287200969628
  C   3.89180095687361      2.56249503532639     -0.09593045932214
  C   2.53314701315272      3.19197877764639     -0.29048823667521
  O   1.63327307991140      2.62385568651198     -0.83493182813266
  H   6.76287570569933     -2.49540751864246      0.29264036210734
  H   5.38997772152443      2.41426562250238     -2.01352968663475
  H   6.17070322644622      3.81235211447199      2.13526480830692
  H   2.47222411918987      4.23332479013282      0.06568885246099
