23
Coordinates from ORCA-job 10292optt
  Br  1.07217465708300      0.25848349428716     -0.36103179691221
  C   2.92636769690472      0.07947020042034     -0.07089089998145
  C   3.45625773369799     -1.16701271941108      0.23237592963854
  C   2.72404657729307     -2.46214410762907      0.34627134031586
  O   3.59965848003014     -3.53398030150432     -0.00352792309060
  C   4.82625396111108     -3.57468161720894      0.55408674443877
  N   5.47732744575911     -4.61068998419889      0.79675885707200
  O   5.42069567988136     -2.37184090831025      0.80850684930841
  C   4.82085113921838     -1.20720626739770      0.45724985965260
  N   5.63263624325685     -0.16875975244758      0.39806902568886
  C   5.09439098940553      0.99845743988343      0.10508510758822
  O   5.85281208806933      2.11791962573311      0.03806354566342
  C   7.21695531919072      2.16376805722383      0.12478113223768
  N   8.07068989414322      1.26504130841619      0.30403085003545
  C   7.70869922932734      3.58393833937196     -0.04015029106595
  O   6.99795430716223      4.52526296602673     -0.22237361884341
  C   3.73621670714806      1.19327136363809     -0.14397033084237
  H   1.89333294617266     -2.51866168454562     -0.35265618342181
  H   2.34023039800172     -2.62180726216505      1.35871123094541
  H   4.92002014378988     -5.43364416254360      0.58860624517171
  H   7.66407464460564      0.33877455369428      0.41393497186031
  H   8.80624473015637      3.64971351069123      0.02736784025702
  H   3.35910898859156      2.17732790797577     -0.37529848571646
