26
Coordinates from ORCA-job 10290optt
  Br  0.94614422957377      0.31672451379596     -0.32724167182983
  C   2.80630993033603      0.12381886579304     -0.20352466538130
  C   3.39314523100962     -1.03849092251307      0.16845055356090
  C   2.70689285462992     -2.32203893299189      0.51267815620069
  O   3.48495230266507     -3.42091384677016      0.03129982613800
  C   4.79377838765894     -3.47713291902688      0.35174736998134
  N   5.49360831275798     -4.51394957426812      0.33846109945388
  O   5.36909098539901     -2.29906548400942      0.70238979492731
  C   4.80425163533236     -1.12430192711260      0.24991309997539
  C   5.59102360110387     -0.06097046542795     -0.03938495558055
  C   7.08765859209080     -0.09321134019436      0.02567662134033
  C   7.74851264344434     -0.22992903897044     -1.34664409734349
  C   7.78247881042475      1.04363130688138     -2.14406319604035
  O   7.34871564693655      2.09621626004231     -1.75762258634739
  N   4.96778494682158      1.09628932778270     -0.40688084264411
  C   3.59979238725921      1.30948907582226     -0.52916923327747
  O   3.16239614996537      2.38465898049549     -0.87756675436935
  H   1.73662581424889     -2.40904454003164      0.03326454519622
  H   2.58031611736865     -2.40940912074038      1.59617535604054
  H   4.91630786051060     -5.32449409741371      0.13566223120701
  H   7.37688132894582     -0.93973377859961      0.64432856735642
  H   7.44622804578344      0.81878843014566      0.50720076312517
  H   7.26323069778779     -1.00172520163526     -1.95277979687017
  H   8.78825517945972     -0.55716053207949     -1.24023283484665
  H   8.26023954729425      0.97170262689357     -3.13765690762252
  H   5.55137876119162      1.88825233413263     -0.66048044234998
