25
Coordinates from ORCA-job 10297optt
  Br  5.34468605687331      0.89604310499660     -2.80535175175783
  C   3.87014759429279      0.53334358613229     -1.70911921202457
  C   2.95131095807711      1.48115332114517     -1.46633042499976
  C   3.04357028553577      2.93254791785586     -1.87062052033820
  O   1.85916151118780      3.67092546239707     -1.64613346523737
  C   1.34733246999051      3.83634136705185     -0.40535708978576
  N   0.23317642263528      4.37302368203817     -0.18697994262065
  O   2.14204585210550      3.36895738428841      0.56631402431204
  C   1.47117488957676      2.94571579695382      1.76099146373132
  C   0.47173360535526      1.79340797721282      1.56092868902084
  C   1.03658921982759      0.40007245259489      1.35872566684845
  O   0.83411730517209     -0.50573564519100      2.12156841180716
  C   1.93116882652593      0.18400688717201      0.16981385547445
  O   1.88805746268344      1.22331056143096     -0.68828221201168
  C   2.80053745673102     -0.82031810221650      0.02951949083688
  C   3.79937568148021     -0.78789366024173     -1.04998004978379
  O   4.54172801070122     -1.70593921725609     -1.30504813417297
  H   3.24428466337503      3.01850698186268     -2.93613962566471
  H   3.88662156312399      3.37068603777304     -1.32911806646968
  H   -0.21119553455594      4.64979660494417     -1.05657747474600
  H   0.92664233445048      3.79400614821658      2.17216613013333
  H   2.27406478865342      2.66665992079879      2.44045610310377
  H   -0.18169770734983      2.04750022831610      0.72313089696917
  H   -0.14463432757484      1.73733903320450      2.45773773074473
  H   2.81300061112605     -1.63045783148049      0.74468550663080
