24
Coordinates from ORCA-job 10296optt
  Br  0.92555969597464     -0.07164118113944     -0.62837855935501
  C   2.78186730219715     -0.08072857036763     -0.34335861659316
  C   3.55610165525146     -1.19594682874083     -0.37864462265482
  C   3.01367692321915     -2.54469896798213     -0.67515984789958
  O   2.01039044173966     -2.76080342774630     -1.30261661334698
  C   3.77895228405187     -3.73500718095687     -0.08882394574782
  N   3.27977889923737     -4.87987971292979     -0.00525725155521
  O   4.99919853315512     -3.48687524412988      0.43851745556906
  C   5.73460258307741     -2.42137952082669     -0.14375697285707
  C   6.13006025590095     -2.74535940120643     -1.59546391581936
  C   6.91614940422639     -3.96986633534361     -1.67579453106326
  C   7.56144355701522     -4.97671309113197     -1.70747040730665
  C   4.97351777832403     -1.12055932285329     -0.06466206502151
  C   5.64043492402469      0.00517261636141      0.23372846250062
  C   5.07406952292026      1.34149336874857      0.28609390254714
  N   5.66481384270729      2.43682675354129      0.51715408662451
  S   3.32312800703975      1.50905712291198      0.01921252064814
  H   2.34523102467066     -4.86201643090781     -0.41471276609240
  H   6.63886541460089     -2.35366822444578      0.45796226627164
  H   6.70108618593792     -1.90314856933772     -1.99188157991712
  H   5.23219163891532     -2.83772599281614     -2.21537567143691
  H   8.13013246062195     -5.87544181883256     -1.73874756640986
  H   6.70215949297249     -0.05165604943035      0.45420012010735
  H   6.66158817221826      2.29756600956201      0.67623611880825
