25
Coordinates from ORCA-job 10298optt
  Br  2.25788395642295      2.12256214228288     -3.30484509263843
  C   2.71248893454397      1.47435453529728     -1.58751116047932
  C   3.65405715176302      2.07269103667331     -0.80841091763432
  C   3.85629404158824      3.55335295250888     -0.76286663534968
  O   2.93298664484851      4.07122819799961      0.22500481923117
  C   1.62146809318348      3.73111819941985      0.04053568143610
  N   0.78084603124293      4.35039561589004     -0.65311941271061
  O   1.30707242529759      2.62832326158285      0.74512511085409
  C   0.02402529354182      2.05422742887583      0.46480050220430
  C   -0.07544163401874      0.67544440083388      1.10693858847820
  N   -1.03156849981620      0.30111028661109      1.84130661466019
  N   0.98270137879171     -0.22442476398205      0.90389800160008
  C   2.06653245682629      0.13543974790811      0.14130234933014
  N   1.89535965029592      0.53166179017321     -1.07428966547517
  C   3.34204571307273      0.31973348638175      0.86821377516740
  O   3.69078089153856     -0.28134858794798      1.85689906952182
  N   4.02439199560548      1.38908310831686      0.32910324981740
  H   3.66488721610680      4.00705667583596     -1.73393348164554
  H   4.83961907092473      3.85098887928320     -0.40428967255273
  H   1.20580690640262      5.14925456009969     -1.11382881472270
  H   -0.11549364868007      1.99925115661422     -0.61559228970060
  H   -0.75551732789274      2.68913790272915      0.88294715829824
  H   -1.70195043696189      1.05013782552354      1.98709693938214
  H   1.14933998233855     -0.84556188242344      1.68527534076197
  H   4.70938371303370      1.80578204351227      0.94723994216587
