23
Coordinates from ORCA-job 10301optt
  Br  1.31803727989436      0.01825416534346     -1.08603431878440
  C   3.12761277063459     -0.23098859893978     -0.66040009909835
  C   3.64574615926278     -1.35714687623061     -0.11807470750412
  C   2.83434329655669     -2.53639887922363      0.23622291631669
  O   1.63238481246010     -2.59042862727621      0.22635740223682
  C   3.58107967589766     -3.80513308682266      0.65638518643325
  N   3.00363444304363     -4.85535647053676      1.00941940341892
  O   4.94085817694804     -3.80979445036254      0.60608492312282
  C   5.63826025522211     -2.65260073416547      0.42471192034459
  N   6.99895601668749     -2.84890973139267      0.63100426441875
  C   7.98630887983758     -2.60744370204936     -0.32542624014474
  N   7.88353543354131     -2.03565603389455     -1.44426340800491
  C   5.07705282676105     -1.46622891202852      0.14420738313514
  N   5.87449517400868     -0.31360638674083      0.16639849970248
  C   5.65120742507606      0.86462981300866     -0.49549997770477
  N   6.45483543158887      1.81765964772590     -0.68796496146283
  S   4.02022710167136      1.17847156446593     -1.12542771559436
  H   1.99527628145394     -4.70326481990526      0.96610145493995
  H   7.22417132606043     -3.53943505758052      1.33305277693572
  H   8.96211175811201     -2.94712400400171      0.01672295043807
  H   6.92245489883494     -1.78236919917637     -1.67307852027046
  H   6.82308666272443     -0.44581745579236      0.49098566135571
  H   7.39432391372181      1.62468783557588     -0.34448479422996
