22
Coordinates from ORCA-job 10307optt
  Br  4.60248175946041     -3.24427370064883      1.29188964383941
  C   5.36988139499333     -1.69858477751498      1.99443363467577
  C   5.57136831466873     -1.42530939031808      3.28527339373194
  C   6.19037677943327     -0.08652908081367      3.58981295533281
  O   7.14556095483801      0.27771049967014      2.57968111329402
  C   7.16702141073086     -0.54082856748008      1.53730563744299
  O   5.89963638396786     -0.85619250820658      1.05239855751598
  C   8.27861353859701     -1.12407638237276      1.09948445196601
  C   9.43538183930710     -1.30012259018573      2.02354071308218
  O   10.57150685673474     -1.44324820783969      1.68247886602979
  N   9.05339137848262     -1.41699960092595      3.40777937491060
  C   8.25718104818673     -2.34738903104585      3.69591725251286
  C   7.73384578467588     -2.52745249829310      5.10452120772895
  O   8.45368490710393     -2.63565100560472      6.05528796278759
  N   6.34873925630989     -2.67422298338569      5.24332634831197
  C   5.28020447822418     -2.38111014876654      4.39166081768361
  O   4.19181476079817     -2.84342558205608      4.60060236403290
  H   5.42459681176635      0.69004620508142      3.61956245581305
  H   6.72825128501993     -0.08989738689879      4.53819397640134
  H   8.30830185005230     -1.63428530842810      0.14826145946044
  H   7.88258557059328     -3.07328119144105      2.96529242897868
  H   6.06957363605533     -3.08587676252525      6.12729538446705
