24
Coordinates from ORCA-job 10305optt
  Br  1.18714604783267      0.30368408495959      0.28025504082690
  C   3.04768924522442      0.06961554686534      0.15043470505240
  C   3.67767881679517     -1.14747379622613      0.05943611647790
  C   2.93798476542057     -2.42151159870012     -0.01333457233475
  O   1.73571322436028     -2.48589146297536     -0.10984575949877
  C   3.66636070638610     -3.77627491447194      0.03288600329850
  N   3.00924463170013     -4.85270423294761      0.00279463951769
  S   5.40363512372934     -3.90131309790949      0.16427222769574
  C   5.92643808375505     -2.25016723109432      0.06422356888585
  C   5.14807395657250     -1.16119386306973      0.02602799339411
  N   5.76686694415403      0.09837056114572     -0.06916904607472
  C   5.11586611622019      1.26592034422941      0.03800197370182
  C   5.93998620884353      2.52036721347895     -0.01620195962042
  O   6.72308455158291      2.70800473069185      1.17422689563397
  C   7.90692856542269      2.10532349073846      1.22712477431452
  O   8.34012673043468      1.34745397896439      0.40568632042796
  C   3.76401298060440      1.30038949972134      0.16852997170132
  H   2.01293339344230     -4.62798666048080     -0.05731407677752
  H   7.00325607548367     -2.14893937020463      0.03330681400303
  H   6.77486866603322      0.12580137143557     -0.15969818431770
  H   5.28528715842707      3.38481867588656     -0.06318337734454
  H   6.60240037221380      2.50725920053559     -0.88318780630912
  H   8.43702584606971      2.40263298580597      2.13738876047020
  H   3.24039178929147      2.23781454362136      0.25833897687563
