22
Coordinates from ORCA-job 10303optt
  Br  1.39594469307596     -0.06855177283114     -0.32161200107213
  C   3.24109518420299      0.03348406099896     -0.15777734375742
  C   3.89295496538275      1.23959587063044     -0.09091417277042
  C   3.27495100359770      2.55653550656916     -0.21035035321012
  O   2.09635003537361      2.79892724884531     -0.28876258512713
  C   4.24552157815032      3.73416678388771     -0.25733033074814
  N   3.85874122969148      4.92081235833479     -0.36536387173670
  O   5.58622683587446      3.51337153610921     -0.22561852901738
  N   6.11607101216406      2.27162456140963      0.07386720527856
  C   5.33309794944976      1.26737126331645      0.12452010538574
  N   5.92673143935540      0.07111851875635      0.49809296133156
  C   5.33398426037187     -1.12969217916303      0.20682432257622
  C   5.77952310733337     -2.38594689758601      0.22437079854825
  N   4.67328244237890     -3.22689124874368     -0.00208670938402
  C   3.54730714925548     -2.49314668151037     -0.30717239915506
  N   2.41090166906990     -2.85422141360788     -0.72183120925611
  N   3.94900988890048     -1.13541690413574     -0.08018394441851
  H   2.83923607947158      4.92522272937522     -0.40550357665321
  H   6.92903211500209      0.09872520487710      0.61013225247845
  H   6.75722618813328     -2.76514444075606      0.45607238736702
  H   4.76837375682880     -4.15404763464320     -0.37851962291889
  H   2.35443741693572     -3.86389647013324     -0.81185338374054
