21
Coordinates from ORCA-job 10306optt
  Br  1.06225951018411      0.10207408924623      0.09662050803527
  C   2.94423894511774      0.10140870014235     -0.03846423504261
  C   3.66403199581522     -1.08774452265288     -0.19500849241805
  C   3.02715343456505     -2.42008088037997     -0.48909906594510
  O   1.95737699469649     -2.50438941032128     -1.02404416606586
  C   3.78079938173043     -3.70082294060921     -0.14904887808046
  N   5.03971568028949     -3.43971427595725      0.52723917217835
  S   6.06038202943344     -2.45022999211148     -0.29193638179407
  O   7.25750676405781     -2.35693593255173      0.46942641569864
  O   6.09073908292300     -2.76818821027121     -1.68714806448305
  C   5.05749275184462     -0.96747959314125     -0.14346562368046
  N   5.73686960325048      0.15288166312819     -0.02916047929771
  C   5.02929334251492      1.26931871633416      0.06625480683355
  C   3.63626842546192      1.30430775655087      0.08464003185127
  C   2.98699293483818      2.64579397578375      0.20857296224897
  O   3.61989461924721      3.63522494723138      0.45306257718416
  H   3.90135424691449     -4.25032813603689     -1.08658127263506
  H   3.13451175957867     -4.27855664562340      0.51109745593645
  H   5.52094298047934     -4.22987033329236      0.93938227196852
  H   5.57269660698797      2.20382077548258      0.14416381255309
  H   1.90047891006934      2.68451024904942      0.04649664495417
