23
Coordinates from ORCA-job 10304optt
  Br  3.09474039888235      0.99435539761612      3.47679421222956
  C   4.23774510399573      0.85705040102867      1.99075551996764
  C   5.37886202047424      1.54808792546190      1.76821809929547
  C   5.98316899698249      1.46906071586316      0.42302351033065
  O   6.55156848966618      2.37398187391759     -0.12493234335439
  C   5.90075955803914      0.09663257577098     -0.21390978078965
  N   4.88087098945476     -0.66845921997140     -0.12479400021990
  S   3.62159131141663     -0.31818808489003      0.88412817375847
  C   7.17312488911474     -0.27145008003542     -0.74977653633087
  C   8.36018583254268     -0.19352342457921     -0.55213971632408
  C   9.60409218715744      0.16385456270442      0.13513345535827
  C   9.07521753478812      0.46734794656021      1.52803232980181
  C   8.62556402915996      1.65941893248615      1.90128093699828
  C   7.84907045939178      1.86847418703987      3.16018711913555
  S   6.21969587712521      2.61857859062591      2.94192064619436
  O   6.39789665955484      3.89643845233723      2.32865136558637
  O   5.56570908846004      2.50683729791422      4.21211837229758
  H   10.04503270875867      1.04934709928449     -0.32483048286091
  H   10.33903397977260     -0.63957642498754      0.13276901464204
  H   8.91216212839509     -0.39800214571865      2.16338513378393
  H   8.74655737897160      2.52506039491038      1.25767384933846
  H   8.30785483694041      2.60697691263304      3.82512153314149
  H   7.68749554095520      0.94369611402789      3.71318958801984
