23
Coordinates from ORCA-job 10314optt
  Br  0.98373646724963      0.04250045526907      0.08688682119882
  C   2.86074639708915     -0.01535537758434      0.01577658474487
  C   3.57526120049906      1.11784189216535     -0.05155186283972
  C   5.01399499218267      1.15500275626346     -0.10387156113076
  O   5.47066332315642      2.45413978073061     -0.17930944848148
  C   4.42269183905189      3.32711022034439     -0.19518700507371
  O   4.56742837823075      4.49906375065301     -0.26846412331444
  C   3.09307730136799      2.55034668121708     -0.10701869521549
  C   2.26911032511576      3.02384224190862      1.13602555863097
  N   1.14547956784019      3.69441917882242      0.53244557028451
  C   1.09149404747865      3.56971484376462     -0.83126264991704
  O   0.24166838092143      3.98153459110765     -1.57590770577723
  N   2.22132891927137      2.85810578348061     -1.20225622762277
  C   5.83258505601208      0.10737481717651     -0.09170757686980
  S   5.22780813303798     -1.50798934894598     -0.00677954080860
  C   3.45302890005471     -1.36766687409026      0.03216292984041
  N   2.72546861338829     -2.40140893040687      0.07666009586720
  H   2.86515510024701      3.70205887175534      1.74768670105625
  H   1.97071410080924      2.16331964845247      1.73592087884745
  H   0.31572148028120      3.95124795534727      1.03748731144954
  H   2.52343319845700      2.87747995557785     -2.16164256862899
  H   6.90792080412326      0.20744146688940     -0.13684458120798
  H   3.25648347413422     -3.27012435989832      0.07875109496795
