25
Coordinates from ORCA-job 10328optt
  Br  1.04512320026077      0.18824899501768      0.08840970581876
  C   2.91632334326644      0.08577260630485      0.01407551158380
  C   3.55359467928426     -1.10419364948554     -0.03815963364891
  C   2.83733735402474     -2.42914601404886     -0.05695905917901
  O   3.71920612487083     -3.48965504496967     -0.36717363362701
  C   4.90651874502234     -3.40980311147771      0.34394927076301
  O   5.68385342686228     -2.31316532008172     -0.09180584250966
  C   4.98056689624818     -1.13434489690251     -0.04544531397050
  C   5.66595872101425      0.02970470794546     -0.02551864880876
  N   7.03392468704231      0.07395161644971     -0.00347627651721
  C   7.89691666841598      1.16568526631670     -0.14933715118559
  N   7.62930979855680      2.37995727677282     -0.37817627999184
  C   9.27833788571558      0.75230721833816     -0.00176497038775
  C   10.40934643513474      0.38454960548274      0.12525072063687
  O   5.03386393972049      1.21208918745964     -0.00894580594501
  C   3.64290604361919      1.34266427322458      0.02598443068748
  N   3.12139996859019      2.48624013035500      0.05871985041371
  H   2.05861221056035     -2.42578954713528     -0.81747213522978
  H   2.35819692557180     -2.59665528292830      0.91609875683680
  H   5.48714257032425     -4.30241887482931      0.13441940949978
  H   4.70738644030952     -3.30135144743693      1.41908728075053
  H   7.46782315367372     -0.83586754119238      0.06421538626162
  H   6.63185313549418      2.54436611592391     -0.46371925422720
  H   11.42272370113921      0.07810991350304      0.23445886686101
  H   3.81877394527744      3.22574381739396      0.06228481511488
