26
Coordinates from ORCA-job 10326optt
  Br  1.21387255796386      0.22329302664582      0.22348615698642
  C   3.07765592539519      0.01151611426822      0.06674277702536
  C   3.65483784158142     -1.20943088919246      0.07785789888767
  C   2.90396878158221     -2.50981865550808      0.16579469168082
  O   3.74663887659850     -3.57840210265875     -0.22142413331736
  C   4.97036057488122     -3.53635885944763      0.44457697633960
  O   5.72891462840964     -2.41286985237261     -0.01858685976698
  C   5.08705629670493     -1.22629388808844     -0.03195051728647
  C   5.82183608310278     -0.09214822818099     -0.17372915494690
  C   5.19630912844548      1.20065159446902     -0.19640568683508
  O   5.73882089973721      2.28087162439821     -0.30970549171107
  N   3.79329602966744      1.15102460504528     -0.05495235992080
  C   5.74850799635211     -4.76320563589820      0.17043956565753
  C   6.43310254442672     -5.59055714566122      1.02270716773621
  C   7.03957641243293     -6.59775827882135      0.23060030771027
  C   6.70130987832843     -6.34549296480775     -1.07481970275983
  N   5.91937320146664     -5.22965090482097     -1.10026368875774
  H   2.05234157631922     -2.51864837485447     -0.51274814352142
  H   2.53041552221506     -2.68393587773574      1.18274294795964
  H   4.81588020043701     -3.41625112433327      1.52437210715372
  H   6.89666290334745     -0.13739436696791     -0.26129066092725
  H   3.32840505636534      2.04850781033087     -0.05737340336220
  H   6.49354609047997     -5.47646853241564      2.09267805269074
  H   7.65199823421019     -7.41310755748409      0.57596455669104
  H   6.95067106345325     -6.87161379975753     -1.98014389032243
  H   5.50864169609573     -4.81145773615027     -1.91756951308349
