27
Coordinates from ORCA-job 10339optt
  Br  1.81596189531790      0.84415609064536      0.86047356243161
  C   1.73076370267478     -0.93899381259445      0.21304928194037
  C   2.70701406856604     -1.80921800287191      0.57573527505429
  C   2.56023686621471     -3.30895533158390      0.31402248630776
  O   1.48298343768784     -3.86480496795942      1.07653746723062
  C   0.88864115669383     -5.03843369463587      0.60164106760762
  O   -0.42517585353085     -4.84213787855176      0.04485477500312
  C   -0.37488695466631     -3.94730506641763     -0.97331348369131
  C   -0.21056422867382     -4.07365181395104     -2.33572081049120
  C   0.27681592920161     -2.81798834387504     -2.79288140486763
  C   0.39218139625963     -1.97778289183673     -1.69902525044512
  N   -0.14164911288880     -2.66373643591241     -0.63471710739851
  C   1.46530005161351     -1.09750740262820     -1.25000481788397
  C   2.65981671478003     -0.84393778470991     -1.84757151220774
  N   3.84769546675986     -0.69097682214482     -1.10206516051993
  C   4.04545862079985     -1.24993090288436      0.19761200556065
  N   5.14858162259788     -1.40948361458671      0.78633458022241
  H   3.49600397327215     -3.78205082296906      0.62297282929660
  H   2.40403086719317     -3.50545159787312     -0.75628300397036
  H   0.72207755119328     -5.70223053656019      1.44578438022564
  H   1.51792345225832     -5.50646566604567     -0.16126954097823
  H   -0.35887687097885     -4.96888433617494     -2.91484865685926
  H   0.61401223097429     -2.59971735825195     -3.79288959355470
  H   -0.02357204176805     -2.38483925027427      0.32772994135541
  H   2.78279737686819     -0.81347072525294     -2.92242921570845
  H   4.66330799350471     -0.33951818907346     -1.57846590780488
  H   5.94112068807508     -1.08568284102558      0.23073781414521
