26
Coordinates from ORCA-job 10342optt
  Br  1.56056586131615     -0.46154501805981      2.30736556007962
  C   2.98014788784309     -0.37336697915776      1.07983782090491
  C   3.86944567590319     -1.36073956256542      0.86535099515956
  C   3.77054114061414     -2.74298053379220      1.42811082750466
  O   3.27931297147534     -3.62296434943631      0.41187024969976
  C   4.00648256249753     -3.79721398074727     -0.71482289663824
  O   3.46175667419926     -4.17653801576746     -1.70604227889349
  C   5.51484887488150     -3.58904508701058     -0.60604963930290
  C   6.22426123015258     -3.90690701165994     -1.92850661729391
  C   6.49886013113940     -2.52027730559353     -2.48233798968365
  O   6.86891982636295     -1.76993300248559     -1.32997144381305
  C   5.99171758581032     -2.12545338799730     -0.29212788066176
  C   4.89248631003249     -1.09766630097003     -0.12110856380455
  C   4.90275979216010      0.04995156351399     -0.82243656006652
  C   3.89505863187788      1.06486055862398     -0.60987058361670
  O   3.74680625024814      2.09066589700782     -1.19215931631351
  O   2.99810703513704      0.78947403968149      0.44438385642950
  H   3.04949934047802     -2.80585199701346      2.23600368427970
  H   4.73566417720062     -3.09376871777324      1.80296690475475
  H   5.85272665375782     -4.25020855941676      0.19382124101329
  H   5.60270904529222     -4.51746194552731     -2.57729467573022
  H   7.16693522639984     -4.41651630173619     -1.73449369368146
  H   5.59752696213718     -2.09487633999263     -2.93923819459908
  H   7.32286503703145     -2.46904682387790     -3.18949896475477
  H   6.56998979617704     -2.12343718279503      0.63706741876627
  H   5.66200531987459      0.26084634454845     -1.55981925973817
