21
Coordinates from ORCA-job 10347optt
  Br  1.01059647307805     -0.00634444803806      0.01684624183578
  C   2.87846465277756      0.06668095376449      0.02578944021004
  C   3.53900929817466      1.24766922809734      0.02684257523012
  C   2.84310306996487      2.57800691707907      0.02298132949543
  O   3.67823593465881      3.73309118875248      0.02020915331374
  C   5.02534792057051      3.76182033866431      0.02611519461488
  O   5.59301865009010      4.81308867018965      0.02542000425701
  C   5.71465668944436      2.45366093672276      0.03142646281029
  C   7.05363237758494      2.38288537859096      0.03522649304652
  O   7.71142058742244      1.20916639292240      0.03943108738583
  C   7.08435507391494     -0.00965510646449      0.04045616909618
  O   7.72705766681717     -1.01737373149113      0.04405282891689
  C   5.62456550933996      0.04459975942553      0.03634296692962
  N   4.94860837275178     -1.13060111840720      0.03669024332573
  C   3.56553444382805     -1.24215333158240      0.03161874728591
  O   3.01736448033170     -2.31666083975138      0.03344527008348
  C   4.96468039231759      1.23460217072753      0.03178191373310
  H   2.19859148763977      2.65280631943567      0.90145742976601
  H   2.19947274323375      2.64858264177892     -0.85639031786781
  H   7.70786483982718      3.24224610523610      0.03508535301760
  H   5.48141933623178     -1.99411842565255      0.04117141351367
