19
Coordinates from ORCA-job 10348optt
  Br  1.04182259680502      0.18989744924601     -0.07995418659624
  C   2.90869676039889      0.08593592114973     -0.07567072050476
  C   3.73737658832597      1.18593532616921     -0.07358029136212
  C   3.55328560871471      2.66928219752314     -0.07310084879399
  O   2.55293979398419      3.31588080914465     -0.07381017497388
  C   5.02255691521891      3.30071836530760     -0.07121146061206
  O   5.23875197812132      4.47247266663191     -0.07075577202908
  C   5.94190286776469      2.13471818692801     -0.07035941681822
  C   7.25597417060270      1.80130484592881     -0.06911448110879
  S   7.49588251858644      0.08043160433511     -0.06899372297866
  C   5.79326990590162     -0.23168760315143     -0.07101015105458
  C   4.95388568786073     -1.35508622967049     -0.07250536484319
  C   3.56834397695814     -1.15125046286125     -0.07480234728307
  O   2.99178735439881     -2.38053408253134     -0.07602278354292
  C   4.03048551124017     -3.24229474774249     -0.07423209558493
  N   5.20148839666393     -2.71592459287482     -0.07230097024424
  C   5.12224829463483      0.97583751482068     -0.07151649035382
  H   8.12195381042275      2.44525495635024     -0.06835724245777
  H   3.77934726339616     -4.29089212470329     -0.07470147885767
