24
Coordinates from ORCA-job 10344optt
  Br  0.92975436301952      0.37531553087289     -1.75886487464731
  C   2.02349572625779      0.92959437119689     -0.34006856643308
  C   2.96374166570542      1.86942584151184     -0.50472672663819
  C   2.91091125265367      2.93480265569830     -1.57810900361745
  O   1.65140304066815      3.62419914587621     -1.57910818789896
  C   1.48324270568428      4.72057308607445     -0.73310119052778
  O   0.17952890265350      4.70183610297526     -0.10922356803305
  C   -0.05529177407616      3.54651320997669      0.53535422740193
  C   -0.94547047860679      2.56408093429379      0.21551416876283
  N   -0.59885745917850      1.32466011683477      0.68317952210916
  C   0.47201867341074      1.34293194412279      1.40696782849442
  S   1.02482550911537      2.98489686188272      1.76582139518673
  C   1.70138001560218      0.54579701645398      1.06685629272216
  C   2.74923328743840      0.49301226071445      1.89223546591919
  O   3.98926973710210      0.85018257372463      1.44836561569384
  C   4.01373561918460      1.89967946896743      0.52520494156542
  N   4.95611808223957      2.73272760285307      0.52364702176805
  H   2.99416035033446      2.49705428965734     -2.57157724484153
  H   3.73774103870142      3.62971102281813     -1.42840294193796
  H   1.47266740473295      5.64737775874052     -1.30515565450802
  H   2.25709748782216      4.74393115135703      0.04000927581460
  H   -1.73869888344530      2.66876457906799     -0.50863351464742
  H   2.69022175480219      0.36102324968139      2.96472462840063
  H   5.61577197817824      2.54690922464741      1.27709108989179
