23
Coordinates from ORCA-job 10343optt
  Br  0.93254852023279     -0.10316651836542      1.43898515826788
  C   2.73774980917466     -0.10008564306805      0.91369435798015
  C   3.39143099360889     -1.18231720345523      0.43982077639361
  C   2.73451368972019     -2.51181315654854      0.22126524780671
  O   2.93106159738263     -3.02194417086698     -1.09748766348788
  C   4.11644501540508     -3.54967706556941     -1.45161926718120
  O   4.23236808986085     -4.11548770090052     -2.49189350068075
  C   5.26488461553328     -3.35966544909738     -0.45824228652984
  C   6.60748910165986     -3.92506897544986     -0.97521140483631
  N   7.55645208406241     -2.81683065120277     -0.97223271427070
  C   6.95694540545939     -1.77456774550263     -0.60472000618775
  N   5.58848553405765     -1.93817264246285     -0.27934340208839
  C   4.79406566896289     -0.92928896283918      0.16339060725214
  N   5.36211720690166      0.23682095777527      0.30858877713410
  C   4.66462593437106      1.30941844229675      0.74346719062549
  O   5.04061782327790      2.42302623419061      0.89033410202695
  O   3.28589527834258      1.07700166385763      1.09224570869640
  H   1.65927299711164     -2.40596111577980      0.31587675095389
  H   3.05504644221142     -3.25063115435893      0.95706541788277
  H   4.99557104117183     -3.80766806954949      0.49857929082181
  H   6.97900468862996     -4.72819070728737     -0.34110771744057
  H   6.49457296360887     -4.31343063051777     -1.98672269489276
  H   7.38283549925244     -0.78629973529805     -0.51473272824571
