23
Coordinates from ORCA-job 10355optt
  Br  0.83873421651160     -0.14420794270319      0.16665153679968
  C   2.71857077478518     -0.14972688888543      0.07894465745155
  C   3.41260031852686     -1.35276989963224      0.02118834935180
  C   2.90010479953383     -2.74389132429808     -0.00283341675666
  O   1.78056367783848     -3.15987409711087      0.01759222124852
  C   4.16373141218433     -3.65133679927234     -0.06956110657161
  O   4.12981567725101     -4.84158704597454     -0.09834317954412
  C   5.38717864406302     -2.75464029329487     -0.08814979672721
  C   4.81037623101589     -1.36429286976249     -0.02946353232449
  C   5.50588980281015     -0.17527668550963     -0.02449630923935
  C   4.82476631863019      1.04208750392976      0.02539132398082
  C   3.41666084389727      1.05967379213431      0.07713345255764
  S   2.49212600118064      2.54628418571651      0.13936093165620
  C   3.69599513655070      3.84756280985932      0.09775550615187
  N   3.34164934108979      5.06516676546117      0.10924177435900
  C   5.11358697566039      3.50715742928764      0.05565541571176
  C   5.60640876770487      2.26749002693214      0.02285738172271
  H   5.96692773839491     -2.93449563714842     -0.99539640194153
  H   6.02963100458391     -2.98368880785391      0.76416267189289
  H   6.58873869072336     -0.16795275221236     -0.06284335074374
  H   2.33047509459867      5.19112198111946      0.13739543845864
  H   5.76959289895519      4.36885088223424      0.04852277222220
  H   6.68187563350974      2.13834566698378     -0.01076633971657
