23
Coordinates from ORCA-job 10354optt
  Br  0.97701644187348     -0.37081401557206     -0.01430173340571
  C   2.84319085147892     -0.20304530690093     -0.04503659327471
  C   3.54022473245233      1.00118687082304     -0.19915812976375
  C   2.85950241565941      2.29375923582699     -0.47859068180967
  O   1.72750634117540      2.40848657792091     -0.87418308333514
  C   3.68975491388027      3.56965184523082     -0.30220058354383
  O   4.92449718579023      3.39041935384184      0.31069538319219
  C   5.66869034500466      2.34540142340829     -0.27965148824799
  C   4.95580887401705      1.02423629920915     -0.13862720476195
  C   5.70127285567606     -0.12797151526406      0.03457321699623
  C   4.97951438583179     -1.29755632716612      0.15763839804923
  C   3.59028356853410     -1.36110017279097      0.13334396233098
  N   3.20444755983584     -2.68604729969734      0.31626660695222
  C   4.31059670248484     -3.31335028721099      0.43210912271710
  O   5.44130610695179     -2.55811629863588      0.35120632822351
  C   3.77999859732353      4.27208910086535     -1.65935769252217
  O   4.81081075186990      4.65742874554778     -2.12516112124635
  H   3.08490630339402      4.22071576063512      0.33686118445757
  H   6.62123544128983      2.31270334688452      0.24586352955880
  H   5.86931765221951      2.56960915167216     -1.33272543244392
  H   6.78115404261024     -0.10807943290552      0.08680097348704
  H   4.45800973398666     -4.37038013509120      0.58459361139913
  H   2.80995419666009      4.39177307936906     -2.17295857300881
