24
Coordinates from ORCA-job 10362optt
  Br  1.08263736217852      0.24908210884162     -0.17866541756693
  C   2.92709379698938     -0.00681111416159     -0.22146653086597
  C   3.57009521853306     -1.20066067768937     -0.29052196635381
  C   2.84930465629310     -2.50202041124579     -0.32294731508149
  O   1.70559006321517     -2.64103519569462     -0.65255675740799
  C   3.65690962231855     -3.75312969825184      0.14594790426856
  O   3.11986900325074     -4.82001595415815      0.15530340226459
  C   5.08777295296954     -3.51549915594925      0.54543000734247
  C   5.71759461668302     -2.49342921005009     -0.40208386136416
  C   5.02009054444667     -1.16872696176833     -0.27630988416309
  C   5.69155579576348      0.00073453010809     -0.16464357097272
  C   7.17815594383526      0.12124818517478     -0.03674643439574
  C   7.71969460478434     -0.43972394191052      1.26320550645262
  O   7.09873654132233     -1.14220427372027      2.00949526474015
  C   4.96137497222605      1.25250814304505     -0.07479997608937
  O   5.41243142439056      2.35095195946695      0.04006855775676
  O   3.56718515836511      1.14722855900114     -0.14310255516611
  H   5.61535232647281     -4.46730014160241      0.53802999270697
  H   5.11392321471052     -3.11479754870760      1.56371964420630
  H   5.61260212461404     -2.84070787575232     -1.43604198950850
  H   6.77914127064709     -2.40318783241146     -0.19669352466424
  H   7.47059382707468      1.17072232761444     -0.10013937188329
  H   7.71139626553434     -0.39322305997991     -0.84406289912228
  H   8.76989869338158     -0.17400276019852      1.48258177486727
