24
Coordinates from ORCA-job 10365optt
  Br  1.03805862803448     -0.11730431736849      0.11680216647659
  C   2.89661562795403     -0.23984488155363     -0.15771604321410
  C   3.61326359992546     -1.37262701279480     -0.08854265951634
  C   3.26944417564427     -2.74577315070660      0.19090814989987
  O   1.97192948717513     -3.08175665152022      0.47947480989587
  C   1.61618758296264     -4.33994597956631      0.78153426840507
  O   2.33661195295118     -5.28667414771859      0.83218016607708
  C   4.39558379349088     -3.50613477435046      0.10989658349225
  C   5.52804016158222     -2.66900271057043     -0.22497346204980
  C   6.88794360956439     -3.20382464211153     -0.39732957114540
  C   7.82696980296655     -2.63211124194435     -1.43122886599353
  C   8.10278373895002     -2.41058749407718      0.01593633173206
  C   5.08008466673102     -1.38493712257666     -0.34279453667752
  N   5.81909630226850     -0.27664575552087     -0.64797788807920
  C   5.28755145114410      0.87340010777927     -0.74076280646967
  S   3.59861231284105      1.29691829017475     -0.52500823476675
  H   0.53892643902428     -4.35504924412768      0.97895404493804
  H   4.45173846041011     -4.56908648517282      0.26773956643476
  H   6.95558864305212     -4.27317688278811     -0.24664742743125
  H   7.45904801709121     -1.78840124412304     -1.99637828839587
  H   8.44559867667756     -3.33060808072683     -1.97630647516625
  H   7.91845799214146     -1.42054330372258      0.40666908787884
  H   8.91315466865738     -2.95561276501778      0.47843466839874
  H   5.89271020875990      1.74132949010497     -0.98286358472350
