22
Coordinates from ORCA-job 10366optt
  Br  1.29831759290348      0.18703777934667     -0.29160384155729
  C   3.15437121519091      0.02487327261615     -0.14734932898196
  C   3.81494989727151     -1.14461029102577     -0.18647401358774
  C   3.21241890422682     -2.50896050281183     -0.31497110565955
  O   3.85147394888985     -3.43053188475083      0.57450168405313
  C   5.19096326725550     -3.46599426333868      0.65255967229301
  O   5.75006314832654     -4.26329685999841      1.33290926934250
  C   5.95063203740721     -2.40989266998158     -0.17220293060292
  C   6.01852126110611     -2.84200703100709     -1.57029563964643
  C   6.05747946724409     -3.19169951980729     -2.71346734321530
  C   5.24368920511541     -1.07892058293151     -0.08964665666544
  C   5.87723505445931      0.10482652916718      0.05773835618070
  C   7.29732579211060      0.19703221961860      0.14836956589018
  N   8.43895355690309      0.29420353723220      0.22108848703392
  C   5.11984081675380      1.36144632056920      0.11721274857995
  N   5.51570784174453      2.53826104518918      0.26788125813434
  O   3.74207474273214      1.20794925349987     -0.02316827410994
  H   3.30900487460688     -2.88419359936821     -1.33671328707889
  H   2.16419053080375     -2.51153555770393     -0.03237477016865
  H   6.95644670091083     -2.35230674134376      0.24420906682788
  H   6.10726173367022     -3.50323554462158     -3.73023467100241
  H   6.52707841036739      2.58755509145145      0.36003175394091
