28
Coordinates from ORCA-job 10368optt
  Br  1.88253390884225     -2.20319230070973     -0.92700990636858
  C   3.51902698663583     -1.36074365854766     -1.40468562377858
  C   3.55124878027919     -0.01804897632497     -1.28522547045319
  C   2.33645178791301      0.82351230462457     -1.60279542772653
  O   1.92053698308960      1.72703864708848     -0.94710254687256
  C   1.70098815738879      0.44553575584469     -2.96365627018163
  O   2.54548421844160     -0.40190713344185     -3.68905500902430
  C   1.96074870636318     -1.46487357527131     -4.42471992782546
  C   2.99648815556023     -2.56085868643209     -4.69210682544477
  C   3.12929681188633     -3.68044723197727     -3.63873020333180
  C   4.23643309673698     -3.54948136601272     -2.55748339840891
  C   4.50784397151327     -2.13920364140779     -2.11393068196685
  N   5.49009175990002     -1.55707179280538     -2.73104706771930
  N   5.73757164568704     -0.27011675583588     -2.55180965035625
  S   5.13065844319219      0.68148956605574     -1.33023640404369
  O   5.79779064500899      0.34756544777981     -0.11911162011865
  O   5.14890046462080      2.01529968803010     -1.83319276189487
  H   1.52628273099235      1.39108297026947     -3.48544748390337
  H   0.72983042843022     -0.01635596617563     -2.75698118779386
  H   1.58521478992228     -1.07412464854362     -5.37596067697464
  H   1.10800332615425     -1.87157019624934     -3.86727690784421
  H   3.96058881536939     -2.08101340953487     -4.87993503590054
  H   2.70221711337761     -3.03270555834704     -5.63141792425777
  H   3.33992988926501     -4.61350675166538     -4.16342877613490
  H   2.16084169339477     -3.82524156616047     -3.16139460212296
  H   5.17584230430264     -3.91732198389825     -2.96622566521156
  H   3.97771723305820     -4.18084604798856     -1.70622350623687
  H   6.33943715267387      0.17210686763700     -3.23380943810333
