23
Coordinates from ORCA-job 10369optt
  Br  1.09942591148200      0.31901378923331     -0.67789533464138
  C   2.94686927700551      0.09666904431798     -0.42597586576847
  C   3.82520279308164      1.09154386089007     -0.65419736822215
  C   5.23514805378417      0.86431583281187     -0.45249566236616
  O   5.96862357944873      1.90037775662259     -0.89735123419008
  C   6.77643203096928      2.59592866107354      0.05384116203098
  O   6.10337477414606      3.72966166151423      0.46364761005620
  C   4.81233922374943      3.48953331022060      0.97998746308965
  C   3.67964604609439      3.62369851872525     -0.06023977126758
  C   3.74176311250851      4.91720576597842     -0.73052357713983
  C   3.83404571573826      5.97395655408528     -1.28175577339150
  C   3.43968740824440      2.48744588436402     -1.07928919461467
  O   2.87707683664930      2.68965706581914     -2.11244487582594
  N   5.83607347347803     -0.13849912714930      0.07345078304891
  C   5.18013209679057     -1.26254496761402      0.50329575693898
  O   5.68607597688831     -2.18277650094980      1.06900684250183
  S   3.39211858018116     -1.45165326508568      0.16410411622459
  H   7.68073082566090      2.91422817876800     -0.45412913633721
  H   6.99551288891611      1.91282323207822      0.87984715108069
  H   4.64064384918496      4.25377636314528      1.73621653384004
  H   4.76179420917266      2.51232827808484      1.47575653673473
  H   2.75262666922377      3.58868275726224      0.53292662169936
  H   3.91065666760166      6.91562734580378     -1.77078278348100
