24
Coordinates from ORCA-job 10371optt
  Br  1.15587989056968      0.24319485205448     -0.39535951469210
  C   2.99584783037779      0.06188267482957     -0.17043029564213
  C   3.68589630051665     -1.09894455188191     -0.27046469607618
  C   3.04438726428620     -2.41988370481620     -0.59446774889492
  O   2.06791878721551     -2.54015836853403     -1.27178188487014
  C   3.74327069005107     -3.69193647715440     -0.01689247142570
  O   3.17228203793446     -4.73819936858733     -0.09287344740434
  C   5.10714598601629     -3.50625340020386      0.59852048001602
  C   5.88820384575848     -2.39805493652117     -0.11883810908109
  C   6.17815475188162     -2.77598814751735     -1.57427895048861
  C   7.18577370397554     -3.89007657055955     -1.71113969322502
  O   7.77536577102476     -4.37478881203671     -0.78636677648453
  C   5.11369388932332     -1.10919969639180     -0.02366160705737
  C   5.69992874936051      0.04976617568259      0.29574508699814
  O   5.03472456994850      1.21243726475404      0.38785657997225
  C   3.68313169464811      1.32521012425853      0.17272278508914
  O   3.17565596519952      2.39677232453573      0.27289380079794
  H   5.63557830002814     -4.45765695189782      0.58348942514390
  H   4.95617954617461     -3.22306235817892      1.64544444462318
  H   6.84719024042442     -2.27163479706505      0.38584225566474
  H   6.57876491937172     -1.91811293705359     -2.12571055901037
  H   5.27212210648686     -3.06877198569440     -2.11992234676562
  H   7.37492333187208     -4.23470825713862     -2.74433713315596
  H   6.75297982755407      0.16616790511779      0.51301037596876
