24
Coordinates from ORCA-job 10378optt
  Br  1.33002669738906      0.49513490633646      1.16883688839991
  C   3.12920148394376      0.42717043887160      0.63700368378374
  C   3.64942321306812     -0.69824293956472      0.11791608566285
  C   2.94104425599745     -1.99748305680714     -0.15042640375787
  O   2.16126583421821     -1.81757970419471     -1.33598616677194
  C   1.02477316272771     -2.52875885929825     -1.41494153785198
  O   0.65443446829976     -3.33175862333829     -0.61621528582748
  C   4.12694728926107     -2.94970705194073     -0.36324481254254
  C   3.91257760064664     -4.05978824844576     -1.36894338937003
  C   5.12625753724406     -4.95374075306174     -1.47103038086632
  O   5.07097708597719     -6.14965032009775     -1.42833208452728
  O   5.21398482475345     -2.11729044049204     -0.80120166359070
  C   5.00307406302810     -0.85830733981931     -0.32072870070943
  C   5.93645748351587      0.10140985230523     -0.28295576792614
  S   5.59794189345135      1.67937420470938      0.31533132677923
  C   3.89031989705462      1.67030073163410      0.83373562764305
  O   3.44542858969367      2.67857040964200      1.31213285929408
  H   2.29323427591464     -2.32032489421868      0.66181215204738
  H   0.49019843080832     -2.25548810432450     -2.33099057220521
  H   4.39769696655456     -3.35902440502904      0.61624384916944
  H   3.74027402133762     -3.60544165542516     -2.34934441270585
  H   3.04620702201774     -4.66252666010641     -1.09553656418758
  H   6.09483593221596     -4.43472216098708     -1.59252356704772
  H   6.94841797088100     -0.06012532634743     -0.62761116289158
