23
Coordinates from ORCA-job 10374optt
  Br  0.99953637242110      0.14382563612801      0.23567527545073
  C   2.84777435707776     -0.00055484491844      0.11377702607569
  C   3.49493746933365     -1.17305699860597     -0.06634459881156
  C   3.06530240402495     -2.55670331722520     -0.23412471804576
  O   1.97641512805567     -3.05080437043207     -0.22582577453166
  C   4.38312594313048     -3.33580033054479     -0.46868146462858
  O   4.37306645274923     -3.80441412748760     -1.75756893156788
  C   5.45178452230546     -4.66665512833735     -2.08280680650560
  C   5.25745358076300     -5.05001233920054     -3.54284413377877
  C   6.28596639999751     -5.98685560186380     -3.98503112768249
  N   7.10011424824275     -6.72278123965151     -4.31192965117816
  O   5.43688333197574     -2.37526564787428     -0.27971183745114
  C   4.92285381655202     -1.14202627332894     -0.12263813197233
  C   5.64022283076266     -0.00643683534996     -0.00970268250180
  C   4.93997740470375      1.23611253438412      0.16970553591679
  O   5.36860575265459      2.33494619411339      0.28337961661912
  O   3.49139331198410      1.13358931460367      0.21893279808953
  H   4.54003093396752     -4.13348658768110      0.26312646377522
  H   5.42772382283607     -5.55392231551286     -1.44259936501460
  H   6.40673497969835     -4.15534136771870     -1.94299646723457
  H   5.29500340637280     -4.15631417578771     -4.16670771955603
  H   4.27677522939362     -5.50875080733277     -3.67407576424715
  H   6.71731830099717      0.02770862962443     -0.04500754121897
