19
Coordinates from ORCA-job 10373optt
  Br  0.91542290677099     -0.07144877023726      0.36941379688029
  C   2.71576428455729     -0.34768915453375     -0.03838894567505
  C   3.38381038077505     -1.51846727410492      0.01312432238804
  C   2.91707485474636     -2.85632946930506      0.32628252502293
  O   1.57614920658998     -3.09823204535110      0.53413082437003
  C   0.80376153693446     -3.13016263905449     -0.58739023737811
  O   1.22646457757814     -2.95829757187002     -1.68720426670929
  C   -0.57504504738308     -3.39953689300864     -0.24379074524889
  C   -1.72173316442273     -3.62466074683858      0.00723302497646
  C   3.79319221646245     -3.85215560270205      0.44633690304517
  C   5.24604513023831     -3.63976949696464      0.25177984464514
  O   6.01817305435021     -4.54961126737208      0.40275706107674
  N   5.68258367608209     -2.36345636117363     -0.12892464178655
  C   4.82373600590224     -1.43703492330894     -0.23526038206082
  O   5.31013939847644     -0.22907066051386     -0.61121473042955
  N   4.52819960046973      0.90724356307796     -0.69300876042441
  N   3.33628955234645      0.84310043170366     -0.41009451623941
  H   -2.74434523813988     -3.82567426153014      0.22794121664964
  H   3.46831706766546     -4.85674685691240      0.67927770689763
