25
Coordinates from ORCA-job 10386optt
  Br  2.07998313639303     -0.33719420522142     -0.80734711945140
  C   1.33492689651422      1.12218059091167      0.11018279164292
  C   0.92805436771213      2.26442610802198     -0.46392948479124
  C   0.94752131758621      2.57950427336567     -1.93073622936436
  O   -0.32816258729382      2.86351674119831     -2.49247797647148
  C   -1.40799098222090      2.09061330847595     -2.08741411727176
  O   -1.97810393907267      2.53341843837527     -0.87401292938504
  C   -2.36900306964055      3.88660158187372     -0.85908421097564
  C   -1.51802909446826      4.60707074087563      0.19737765943565
  O   -0.15257569146465      4.31592013278956     -0.07557007314783
  C   0.30219358275061      3.17324758076509      0.47968800812699
  N   0.13227230989904      2.96232932811488      1.72437918800864
  C   0.61661735439097      1.80697550479160      2.28510167283793
  N   0.54283030960824      1.53435809735411      3.50381979849704
  O   1.24080659453735      0.87642214326353      1.41010414967828
  C   -1.72630054121469      6.05561095548539      0.12350969997943
  N   -1.94852292794493      7.17474242796956      0.03478346729749
  H   1.40979963221496      1.75232981414296     -2.47171421013052
  H   1.53527661502224      3.47937768117834     -2.11003631749197
  H   -1.13329029416706      1.04781206191034     -1.91063691507328
  H   -2.14256039221618      2.16509341365553     -2.89207449333428
  H   -3.42395025217472      3.96292447956619     -0.58835016411033
  H   -2.20595195772155      4.35901565881797     -1.82949345436560
  H   -1.76700436754830      4.26187199816427      1.20259344211381
  H   0.96416398051930      0.63283114415387      3.71033781774656
