24
Coordinates from ORCA-job 10388optt
  Br  1.21601794430027      0.38784374893193     -0.25280391850727
  C   3.07001133167619      0.18600861022830     -0.16539255175211
  C   3.71153796245038     -0.95575672047592     -0.42303341749310
  C   2.98226708620092     -2.20577541742355     -0.82711819846011
  O   2.34719186806615     -2.90956678081292      0.23811207161763
  C   3.01699743814884     -3.49891561726804      1.25239304159732
  O   2.41730996802528     -4.18509860212629      2.01657979405597
  C   4.50617072396459     -3.21272187400704      1.42590945458229
  C   5.34097017355659     -3.42064523537616      0.17387703526743
  O   5.61054700337335     -4.51887511394900     -0.22390593165484
  C   5.86797891275625     -2.20186662193617     -0.57073915898034
  N   5.12496189164636     -0.98069398962116     -0.30760969375879
  C   5.83687732334338      0.13946462903774      0.01433516816037
  O   7.04141650419700      0.17291723688231      0.09933166861692
  C   5.03918438770437      1.40109265118172      0.28505133280270
  N   5.56046082978180      2.49119284824808      0.58939539597829
  O   3.67458805921109      1.33434005882161      0.19830131929230
  H   3.62397163451435     -2.87972357844192     -1.39422742847650
  H   2.15634528965169     -1.93108692755527     -1.47714223295283
  H   4.85149867524988     -3.92152155229755      2.17425022558631
  H   4.61206087400497     -2.19863705136487      1.81474305119317
  H   5.89988255460263     -2.43670219480294     -1.63602273322271
  H   6.89295138820338     -2.02516194805363     -0.24103827011945
  H   6.57380017537024      2.37488944218076      0.61675397662735
