24
Coordinates from ORCA-job 10398optt
  Br  2.90754255617557      0.35805831832903      3.16454004063635
  C   3.38490615539236      0.70102480149647      1.39180140086991
  C   3.82443546264596      1.86752698235054      0.91592180691325
  C   3.46716824413862      3.17327257543655      1.55090173554496
  O   2.03640335564309      3.32876207637009      1.50507017136950
  C   1.41236607883148      3.11085537659913      0.29918027187159
  O   1.16869848427818      1.68769376234692      0.13039778583055
  C   0.42252444902095      1.25243126524995     -0.91722755838176
  N   0.62998604079343      0.19251308018565     -1.56798689998355
  C   1.78552068767166     -0.68024828511247     -1.40419778343418
  C   2.93945288040444      0.01344705998789     -0.74029007823525
  O   3.07891054895035     -0.32711096856512      0.57896518934064
  N   3.58310766662938      0.94059504567674     -1.30462483641961
  C   4.27110698853828      1.86166892179741     -0.49701228306440
  O   5.06159784760914      2.65363715468757     -0.93862412562312
  C   -0.73144060241775      2.05883325775664     -1.25061449726707
  C   -1.67217752361982      2.74944621275680     -1.51586693477549
  H   3.95218174987036      3.98760943560389      1.01009241657331
  H   3.72376353074431      3.22879443099846      2.60585294345982
  H   2.01441656653788      3.44526311735556     -0.55425584536752
  H   0.45356844860480      3.62473445497562      0.32498024352388
  H   2.08189851597962     -0.99785626592750     -2.40241085093964
  H   1.48843593146907     -1.56060095954753     -0.83286891017643
  H   -2.51637406389138      3.34764914919168     -1.76672340226574
