21
Coordinates from ORCA-job 10406optt
  Br  0.95353814680350     -0.19581807852523      0.19896738701783
  C   2.80654225569955     -0.04903639133434      0.14239245000744
  C   3.49796665642676      1.12550657866787      0.11181143985045
  C   4.93596449053574      1.00411967627615      0.12632359606635
  O   5.53919520068861     -0.21594606717131      0.13953734744321
  C   4.74138973195588     -1.26523040636351      0.13409429610338
  O   5.47846898118146     -2.36118756005121      0.11893966577407
  C   4.97054556273682     -3.65317417977762      0.09336089968623
  N   3.79520276933007     -4.06509999425663      0.12136711027543
  C   6.10742261014019     -4.64370298544963      0.00968017236147
  O   7.25393536271405     -4.32646488321464     -0.06412061577235
  N   3.45454168517585     -1.25127830264403      0.14265130067303
  C   5.48504898598085      2.24462321425368      0.13003551245851
  N   4.46906931217749      3.17088134018751      0.10845697644136
  C   3.30436845453280      2.55787747098987      0.09601057535269
  C   2.09125931334817      3.38548945761642      0.03819217595430
  O   0.96331783155437      2.97436168237880     -0.03643187651693
  H   3.09648742186307     -3.32477079620172      0.16303053264332
  H   5.75201980673311     -5.68558899324868      0.01596990541835
  H   6.52208968882201      2.53411362607006      0.14414418441068
  H   2.32462573159956      4.46432559179819      0.05958696435118
