25
Coordinates from ORCA-job 10418optt
  Br  0.90553059699353      0.96410995098083     -0.36397053771135
  C   2.73026224255816      0.49716832044477     -0.43071625568407
  C   3.21040799542553     -0.74691316330489     -0.19370209391693
  C   2.39650637590529     -1.97022422716610      0.09926886481358
  O   2.84413375662230     -2.60676984819456      1.30136566381493
  C   3.57712195703151     -3.73318415505903      1.31923009165603
  O   3.65923160679470     -4.36400924548356      2.32989254554951
  C   4.33217781425601     -4.20589445701317      0.07006660595113
  O   4.84003275715296     -3.21872437155195     -0.79371864688342
  C   5.44959625874078     -2.11156038591855     -0.15961494734334
  C   6.75128926323137     -1.67653808320688     -0.85914536580784
  O   6.72493713868639     -0.23665285119244     -0.91647772417947
  C   5.43540042707455      0.12178509620210     -0.73672045496335
  C   4.61933482531738     -0.86975676815803     -0.33232188883786
  C   4.94977108416495      1.46859783542574     -0.97461825060114
  O   5.57973695059320      2.44764954539646     -1.29866959746020
  N   3.56155812149831      1.52640376625179     -0.77350178219636
  H   2.44392357891333     -2.66911514404411     -0.73672345356913
  H   1.35588361686491     -1.71136645722880      0.27680836207075
  H   3.66300710418914     -4.83044011268936     -0.52506811479173
  H   5.12962100935824     -4.84244004309528      0.45954390355448
  H   5.62161016365833     -2.33319040208570      0.89973605668079
  H   6.75510291299983     -2.07001278330217     -1.87812109438275
  H   7.65545173929735     -1.97384182824316     -0.33621386214049
  H   3.16237070267189      2.44091981223605     -0.93860802362176
