20
Coordinates from ORCA-job 10411optt
  Br  0.91990097460939      0.23817029533718      0.09602794478303
  C   2.78917658529096      0.06697043923755      0.07726374188988
  C   3.45927910512182     -1.12683593461805      0.02767155149689
  C   2.74370031301978     -2.42594595419032     -0.02680526459248
  O   1.54892005167376     -2.57369388608888     -0.03439968859384
  C   3.63898266579836     -3.61568985340617     -0.07639494745721
  O   2.98179683548641     -4.78902049516668     -0.11635888339942
  C   3.64670887121366     -5.93164544952198     -0.50847639317906
  N   3.15504229313959     -7.06934810988746     -0.37533578338922
  N   4.90817777500676     -3.57018976635464     -0.05846286671668
  N   5.50923524104641     -2.36953500609375     -0.02119320864360
  C   4.91455488111826     -1.14904697727429      0.02209843275543
  C   5.72292455963026     -0.02948098405035      0.05829393754748
  Br  7.60198674327576     -0.21728499393069      0.04256306874581
  C   5.28824057191713      1.32951529944898      0.10722910477906
  O   5.96403795390420      2.32476970129067      0.13476725865540
  S   3.50812870833912      1.60704644600243      0.13322085861520
  H   4.61618815229797     -5.75318740327858     -0.96102269888657
  H   2.24266943326190     -7.03531613937598      0.08080303058976
  H   6.51634828484844     -2.41625122807894     -0.01248919499986
