25
Coordinates from ORCA-job 10410optt
  Br  2.73535127449524      0.25687614283997      3.27126111668607
  C   3.08003877761327      0.59749561442657      1.45779078904962
  C   3.36339738129849      1.83951259691448      1.01582246438048
  C   2.96840362204403      3.15134612715966      1.63534127008541
  O   2.32925526682257      3.99053112483231      0.66518278581928
  C   1.49602066289003      3.56206213254519     -0.29868290405052
  O   1.28636836173146      4.24460674545457     -1.25585618754578
  C   0.79956009029120      2.21050785868102     -0.15306160227000
  N   0.37707209823612      1.89485451505973      0.99994968207565
  N   0.73331950028723      1.53731337002992     -1.34711158183974
  C   0.50111768486212      0.11114151109653     -1.48433513308282
  C   1.80897210393112     -0.72073030648822     -1.65908411378784
  C   2.79232345072384     -0.14208916749616     -0.69353323032604
  N   2.68387100321110     -0.35561953318042      0.56480089564218
  C   3.61472470518374      0.98003620890431     -1.19754093066543
  O   4.08684188280241      1.09951429030821     -2.28434666545604
  O   3.74210438390862      1.98574197452523     -0.27567191644040
  H   3.82973795224575      3.73281806663586      1.96154232977375
  H   2.30124884205341      2.96136247648036      2.47331707808307
  H   -0.11070357223648      1.00185942890359      1.02781846797406
  H   1.04023461422970      2.06125749535981     -2.15461048037443
  H   -0.16730927012372     -0.07160347830741     -2.32510115608751
  H   -0.00429028172982     -0.23983396132192     -0.58607161601586
  H   2.18872354393058     -0.63831429140163     -2.67602592057861
  H   1.59961592129787     -1.76464694196161     -1.43079344104855
