24
Coordinates from ORCA-job 10426optt
  Br  1.47628473231845      1.71594603621289     -2.46076475756476
  C   2.44100461357286      1.21844480262340     -0.92568351141564
  C   3.44948332623805      1.97644731798310     -0.42100451770966
  C   3.55487702372139      3.45698704792957     -0.69312698122907
  O   2.31083049663443      4.10054871120473     -0.46481696843027
  C   1.69618702391891      3.93628467167507      0.76980751632140
  O   1.07136535450553      2.65210350189298      0.90665719504276
  C   -0.05347933099941      2.42358025818110      0.20577426059188
  O   -0.78684839260964      3.27044754273177     -0.19984646671925
  C   -0.38482801828491      0.92859188278523      0.04520948410041
  N   -1.58765478838542      0.56126288454153     -0.01384939235719
  N   0.62634550355054     -0.03562309025883      0.07008495793691
  C   1.97883720224650      0.22224891959362     -0.00452281267051
  N   2.76059833483358     -0.35464091224939      0.85319144617405
  C   4.03771792458337      0.11001412269913      1.02189835985806
  O   4.94197625384063     -0.44327718384811      1.59069125727687
  N   4.19834008626394      1.45072729373244      0.57265296046468
  H   3.80059069586737      3.65734543121439     -1.73453719656267
  H   4.32963244034351      3.89253149200047     -0.05351723424507
  H   0.94360138999199      4.71589304069586      0.84895522149406
  H   2.40918757466195      3.97113748810137      1.59552751353976
  H   -2.20416998220252      1.37106526983933      0.03115251516676
  H   0.36959544992098     -0.89851212470717      0.53105328014193
  H   4.99252508546789      1.95144559542550      0.94601387079457
