26
Coordinates from ORCA-job 10424optt
  Br  2.33363955739038      0.00232203691815     -3.50104775405861
  C   2.71241551089935      0.40976967142025     -1.68069923582561
  C   3.21717250027471      1.66545584210819     -1.33171692700723
  C   2.93811215305159      2.91014321218576     -2.14866500046782
  O   1.63911891768979      3.35884567931318     -1.73260193146031
  C   1.53231854010411      4.22254856075196     -0.66057048172666
  O   1.74531670077131      3.60886632166151      0.63398971198516
  C   0.82415991869861      2.72423051299145      1.07750330219049
  O   -0.25868810935176      2.60048244224712      0.59181707214243
  C   1.29132189999631      1.89587195496593      2.28833541386920
  N   2.65995030610308      1.35384477946209      2.26322201976895
  C   3.00776060012404      0.95075983499349      0.94479009425812
  C   2.52428320107682     -0.26236836329023      0.47046498333835
  N   2.45272709782983     -0.55204720876260     -0.82403306475909
  C   3.54300808898266      1.84318652407677      0.01158228643684
  C   4.30160996049540      3.04330665331846      0.48636346255327
  O   4.98789503176039      3.73387821538658     -0.21661952342755
  H   2.84345123238893      2.67964270354490     -3.20469571964278
  H   3.68410902424701      3.68598943575322     -2.00287458475393
  H   0.52287879141139      4.62421420798001     -0.68557901298617
  H   2.29144301272332      5.00622101843945     -0.69214610587881
  H   0.57380096200068      1.07973099544957      2.35842182564378
  H   1.18174087202948      2.51178529175937      3.18275867707267
  H   3.31354126975767      1.99743464817976      2.67965036697791
  H   2.15286470540715     -1.00290914136809      1.16966208947836
  H   4.25404825413765      3.24979417051366      1.56568803627904
