17
Coordinates from ORCA-job 1042optt
  C   0.95580301158406     -0.09175463896030     -0.11741467405502
  C   2.47071880354399     -0.02828234610930     -0.21046080320821
  C   2.97203200355584     -0.83138783298843     -1.40615969282251
  O   4.35654254813484     -1.08271783457844     -1.38266218872174
  N   2.84337457731744      1.37992495808783     -0.35051492659764
  N   4.17106229459452      1.62423744954690     -0.49970721440389
  C   4.62918775949870      2.75906062190099     -0.17427680439530
  H   0.58339315029554      0.52775067488552      0.70076364067850
  H   0.63018534138310     -1.11526504751890      0.06422169494277
  H   0.50464467798227      0.26299149323194     -1.04577587040199
  H   2.92043794742812     -0.45910970814897      0.69361810701370
  H   2.67285983906500     -0.30385983244334     -2.32119333405111
  H   2.48024391405525     -1.80567150584632     -1.40034117126984
  H   4.79139266912684     -0.22894238396476     -1.25661628192064
  H   2.38771627898050      1.98749835033738      0.32742957316432
  H   5.67852963852685      2.95606586359253     -0.34446993606835
  H   4.00187554492712      3.54146171897566      0.25755988211692
