24
Coordinates from ORCA-job 10430optt
  Br  1.15345010637538     -0.03993029061526      0.13721494248204
  C   3.03534332608296      0.05867023563409      0.04784794333159
  C   3.70749999728927      1.22195634244469     -0.09585596189018
  C   3.04873614581610      2.55670976891265     -0.26865732382727
  O   3.72111682937833      3.58337172615075      0.45231400526249
  C   5.04369442181395      3.69277012903892      0.24420957353096
  O   5.66832857885034      4.63263272213894      0.60160723421776
  C   5.72282443347134      2.48321901557162     -0.43747891566515
  O   6.72290881222491      2.61437361717067     -1.05845546017069
  N   5.08763730306424      1.23421504945492     -0.19648772117971
  C   5.91893612692227      0.03756617806086     -0.07666417082470
  O   7.11909827484866      0.12634448211829     -0.03628926841343
  C   5.14466428755200     -1.15356090882823      0.00434509478534
  C   3.78498742044400     -1.15813498209871      0.08472248310094
  N   3.28820864943555     -2.41603268445336      0.25460818857776
  C   4.36123910385454     -3.38077833780641     -0.04104348470699
  C   5.65038928860167     -2.56011591599509      0.17293457786211
  H   2.03331857666403      2.53652457239990      0.10967886198675
  H   3.01880979865335      2.81769941813174     -1.33205981078085
  H   2.33528942779481     -2.61390788463736     -0.00896175873085
  H   4.28735522577102     -3.71427919626026     -1.08013743296378
  H   4.29092690777997     -4.24722128498313      0.61216904624318
  H   6.43621960940129     -2.82094609782859     -0.53304533772062
  H   6.05101734790995     -2.70014567372165      1.18048469549331
