21
Coordinates from ORCA-job 10438optt
  Br  1.98697715393669      2.20078122953854     -0.33308352563024
  C   3.59501000352642      1.28833248212433     -0.12409765751558
  C   4.77632756768582      1.83772677627810      0.23459590386451
  C   5.92359593713457      0.96017492666219      0.29623273573683
  O   5.84251653111320     -0.26161523782167     -0.34302313785628
  C   4.65415609740938     -0.84041330455591     -0.63964754788846
  O   4.57969026060155     -1.94681838552477     -1.06107236528466
  N   3.53489632346178     -0.04382215815443     -0.41182047040103
  N   6.99665664824177      1.37943598278969      0.78568883529399
  C   8.26277070161783      1.33154737637061      0.20963173841312
  N   9.30808587806148      0.73582839545055      0.56898147567699
  N   8.29769662752835      2.21837380416651     -0.91146389818550
  C   7.48768815232586      3.19137514440052     -0.96229200799538
  C   6.54721252736287      3.74539633854004      0.09997112881407
  N   6.89002377474221      4.75235956761580      0.77886084035352
  C   5.07990450150938      3.29490824468024      0.30543097150809
  O   4.23086866597132      4.12429524948426      0.46932955960805
  H   2.65320244290962     -0.46872998553828     -0.66222678561433
  H   9.12663207379366      0.15302474377752      1.38330870449342
  H   7.53928220575961      3.81785039345111     -1.85434805501013
  H   7.84280592530657      5.05198841626502      0.56204355761902
