26
Coordinates from ORCA-job 10435optt
  Br  3.43256608122353     -0.55393123420798     -3.14898875244679
  C   3.37110500149187      0.18983588872397     -1.42617390252374
  C   3.23056542304093      1.51288339245047     -1.17946876690437
  C   2.88774620439881      2.57792946858937     -2.16927923618691
  O   1.48853655145132      2.85688976941526     -2.18694974610501
  C   0.97271591418181      3.53118123261287     -1.09988073494145
  O   0.57379745327282      2.62877046055954     -0.07218951165166
  C   0.65872878749285      3.14487629527172      1.21145764982932
  S   1.05291117793119      1.90230292036129      2.47118395518891
  O   0.87522101916833      2.59365533805457      3.70785726986177
  O   0.37576296158822      0.69104013720703      2.15127355509084
  N   2.68740745404887      1.56026963082285      2.38081010671961
  C   3.06218800964116      1.08436592712075      1.08826960479097
  N   3.14296036450990      1.92155055529521      0.13397932518352
  C   3.22125656878341     -0.37265312091911      0.92924479208278
  N   3.19922480389423     -1.28152687674685      1.80598705666260
  N   3.45735597182169     -0.70242329581522     -0.40826241929277
  H   3.13907346564686      2.28460314076818     -3.18446201663937
  H   3.43440324031363      3.49049883546211     -1.91218440490772
  H   0.08710102129613      4.06283784386745     -1.45224865585501
  H   1.70853546204449      4.23622049991450     -0.69095110829647
  H   1.42873395483155      3.91517102513532      1.31901317969658
  H   -0.29628627931212      3.54037064923583      1.57443629075823
  H   3.23370783753825      2.35255422179625      2.70507872320151
  H   3.00277477903474     -0.88752949829475      2.72225582260913
  H   3.57190677066551     -1.68774320668068     -0.60280807592453
