24
Coordinates from ORCA-job 10432optt
  Br  0.97167589625035     -0.58810746300741     -0.91026856280019
  C   2.75122961100538     -0.32258150759676     -0.31486947351767
  C   3.48367279929341     -1.38076286931663      0.21942542739170
  C   3.00745906386423     -2.79768913939504      0.32490228338368
  O   3.65984849668068     -3.59417690727097     -0.67455401179872
  C   4.99050635709644     -3.70311695620423     -0.59203477552904
  O   5.65483836703336     -4.12716603521591     -1.47840793641348
  C   5.63932105585249     -3.34676391781134      0.76824613278777
  O   6.23228751189170     -4.16326489922194      1.38793449375806
  O   5.56214600342276     -2.07032244454951      1.21756778186497
  C   4.78569629750705     -1.09791398956700      0.61981641317416
  C   5.34513218923771      0.16429770846522      0.52299247983245
  C   4.58976359873987      1.19825694551909     -0.00370825148299
  C   5.12700429946842      2.61040306642239     -0.13219471750145
  C   6.55238208032237      2.74978184641438      0.13903749311812
  C   7.72364892459117      2.85817514001293      0.35940612053441
  C   3.28569674645831      0.94813509614509     -0.42300243038306
  H   1.94713352308444     -2.88857605471988      0.12169308468249
  H   3.21125258757664     -3.20805664441555      1.31772991723482
  H   6.36170084046940      0.32295664947134      0.85681827958500
  H   4.56993840064743      3.26004982444533      0.54898961362818
  H   4.91886090793753      2.97499978747583     -1.14106618876445
  H   8.76539942896591      2.96300981230850      0.54969099182995
  H   2.68640501260281      1.74643295161212     -0.84114416461471
