24
Coordinates from ORCA-job 10434optt
  Br  2.51270931020302      1.71839417383988      1.89592314301937
  C   3.46547009836786      0.61023606156789      0.70217043852719
  C   3.38715135252222     -0.77969100336579      0.70282769129655
  C   2.50894056783775     -1.60865658730803      1.60627295563878
  O   2.46905893931037     -1.10567262802792      2.92286947062541
  C   1.82624622658524     -1.89744046701723      3.79555268292619
  O   1.36650963275783     -2.96511048465072      3.52870371868397
  C   1.11508534520794     -1.58967585583213      0.98277521218419
  O   0.21664099965564     -0.93164179665071      1.38557285965909
  O   0.99507418944325     -2.29818100402030     -0.16989531702008
  C   1.67140425580876     -3.47999332409931     -0.47389461817826
  N   2.87892445300870     -3.74756579771865     -0.57691165913259
  C   4.08601804931202     -2.97747297691055     -0.39325534130017
  C   4.07305875511640     -1.46282679446798     -0.31076821762020
  N   4.81252158711334     -0.85488944086643     -1.23021438788051
  C   4.90754465530348      0.46918810082313     -1.18576165860123
  C   4.25653838557010      1.24484598462559     -0.24498187806638
  H   2.86302240091181     -2.63795059844341      1.63667682829839
  H   1.80270025594618     -1.41873059999477      4.77900025763437
  H   0.92818254395160     -4.24074824175543     -0.69377892294055
  H   4.74072945696911     -3.22859251390042     -1.22608635847490
  H   4.56977342171540     -3.38246626753148      0.50282637205798
  H   5.52657665653656      0.93508554444311     -1.94397143404687
  H   4.34311846084539      2.32155651726167     -0.25465183728975
