21
Coordinates from ORCA-job 10447optt
  Br  1.01105947619879      0.15487538249371     -0.05169589709045
  C   2.86195071742453     -0.03108885022075      0.03705846059966
  C   3.49142035402195     -1.22921418834859      0.07105620238399
  C   3.00408850965177     -2.60163484567158      0.06170894391851
  O   1.89245082972048     -3.04580361903600      0.02582384203007
  C   4.29396050753944     -3.47205879733861      0.12275646417681
  O   4.37588792186705     -4.66179475699818      0.16542659607281
  N   5.34984579956141     -2.57056468909422      0.12771335246191
  C   4.93254425435456     -1.24527998018482      0.11455761600197
  C   5.67712035100930     -0.11993354144183      0.09921661704434
  N   7.07357709990517     -0.11787544622343      0.06295086467302
  C   7.90398347741734      0.98881025178727      0.10102429836911
  N   9.16426522706724      0.98393686917811      0.01800534166899
  S   7.15432717229879      2.57848028159159      0.29410681181363
  N   5.50694335220843      2.31784653732390      0.19045926272374
  C   4.98953690146184      1.15740833529992      0.12109621722863
  N   3.58651016600594      1.10266905035609      0.06407090896200
  H   6.29643522743457     -2.88707548151741      0.26535250607224
  H   7.52982252181873     -0.97227661894735     -0.21965049288527
  H   9.56144529274654      0.04945682796934     -0.06272873923180
  H   3.12382484028610      2.00211727902284      0.05569082300607
