22
Coordinates from ORCA-job 10442optt
  Br  1.67756337274470     -0.91021349747331     -0.20095064595892
  C   3.39542436253500     -0.18538923261363     -0.15334403659280
  C   3.63665633244568      1.13849750980274      0.06615525980650
  C   2.93184526133547      2.39583361555108      0.35080387791139
  O   1.77232769763386      2.65191402197126      0.45987512855152
  C   4.09172871577869      3.48166610029108      0.52986448978125
  O   3.96445983206470      4.63573425566280      0.79374592852136
  N   5.26430625871200      2.77120913037705      0.31919031470552
  C   6.71567918664019      2.98101670988845      0.35813479220545
  C   7.31731089220926      1.53580274207519      0.08080174484931
  C   6.08376194010499      0.67243458156495     -0.08085418292101
  C   5.01055535621022      1.44968891571373      0.07442561429518
  C   5.82962447287527     -0.72716538373518     -0.32102240819239
  N   6.59948504323270     -1.71987520428047     -0.50911535412870
  N   4.42573224799298     -1.03210761824091     -0.34102245834291
  C   7.15909308193808      3.95621605412813     -0.64538553325811
  N   7.54844892565566      4.69190060300513     -1.43138233988649
  H   7.01438269608842      3.35125436344517      1.33925768964477
  H   7.93934383056838      1.22784464997418      0.92195957081879
  H   7.94503376298022      1.55477171725047     -0.81040346309322
  H   7.57566450894135     -1.44138384615509     -0.48696021058126
  H   4.23557222131208     -2.01265018820287     -0.50577377813522
