19
Coordinates from ORCA-job 10441optt
  Br  1.00130037859577      0.29464715055198      0.35993377105496
  C   2.87422573223806      0.19542735348017      0.12011910727661
  C   3.54668090132188      1.34967220011272      0.03275546901358
  C   3.04119413270554      2.76219693915801      0.03586500622798
  O   4.20249608340943      3.54934368377431     -0.19579180176525
  C   5.31782486657665      2.79429128565799     -0.24694842062962
  O   6.42171013529142      3.19382975828657     -0.35370097351188
  N   4.90631980699115      1.43600768000285     -0.14772706765179
  S   5.99331832383927      0.17469980672578      0.19705814413034
  O   6.32125390647804      0.27125722681044      1.57849141540432
  O   7.00611664322664      0.18390117245509     -0.79655292103354
  C   4.90492655274854     -1.15592302449678     -0.05163308083547
  C   3.56702419420785     -1.06784674328373     -0.00490895146792
  C   2.80773113597193     -2.36387806097625     -0.17267593748288
  O   3.35386684124702     -3.42793253188413     -0.18877180224380
  H   2.60175800741079      3.03228715861596      0.99794685302170
  H   2.31261440883039      2.93703624280059     -0.75595429347194
  H   5.40177197697817     -2.10805273488115     -0.19966595385614
  H   1.71786597193143     -2.27396456291043     -0.28783856217928
