20
Coordinates from ORCA-job 10450optt
  Br  1.28624159584145     -0.61951557681103      0.00716312798308
  C   3.09805388431198     -0.17415592196375      0.06194959483294
  C   3.63074590818515      1.07948619250465     -0.00971210229043
  C   5.06829196572906      1.15963329636860      0.07255435466929
  O   5.65735996786922      2.36323786412789      0.01979618712351
  C   4.94035623587625      3.55560047027288     -0.07570253084742
  O   5.56091981862044      4.56254494814234     -0.03833025151120
  N   3.56813209195519      3.47981052597935     -0.21337552811999
  C   2.96143094427385      2.35484215764968     -0.17830212388515
  O   1.63972703456050      2.32052141590357     -0.30830468502694
  C   0.98025681135884      3.56022440836879     -0.55204089938912
  C   1.18428478675424      4.00350745330988     -1.93637770109537
  N   1.31710075691681      4.33896550753786     -3.02211143983930
  C   5.85290720457696      0.06808552069660      0.20105010056431
  C   5.27533954181425     -1.23874269632146      0.26107587736060
  O   5.79089087559291     -2.30023339516566      0.36270039126926
  O   3.83605542354610     -1.24621939130512      0.18835805894463
  H   1.33848432070036      4.32815232076679      0.13121073432615
  H   -0.07517927822671      3.36081867544001     -0.38586960490941
  H   6.92660010974311      0.15043622449814      0.26126843984056
