26
Coordinates from ORCA-job 10452optt
  Br  1.11103354674818      0.20354144113822     -0.65143049076944
  C   2.92553143537190     -0.06992180411657     -0.25345050658634
  C   3.51300192707668     -1.27555578426344     -0.27142927916731
  C   2.70713582121417     -2.50427705653904     -0.64262544171791
  O   3.48718030221039     -3.65484097889993     -0.94349221253304
  C   3.92278204904632     -4.33242247542255      0.16395802315228
  O   3.47150918813167     -5.38571778293429      0.50396741259524
  N   4.91510481201326     -3.65373485467688      0.80385350146937
  C   5.68082651923569     -2.60463700203692      0.15493035874819
  C   6.97264403733972     -2.40530384420988      0.93692233027684
  O   7.68797411238904     -1.32156549238419      0.41158689093986
  C   7.04310423750597     -0.09708844862059      0.65161344623753
  C   5.57307030291681     -0.14133605984840      0.34395938689253
  C   4.87396769188076      1.13841525095219      0.35392579578760
  N   5.30991869035449      2.29352572528312      0.60776524885220
  O   3.52580046700941      1.07843109124364      0.05434676629441
  C   4.92141183950661     -1.29272625593365      0.08165069633595
  H   2.13454658309392     -2.30047785387602     -1.54495322044457
  H   1.99393450149166     -2.74890219788843      0.15112871073834
  H   5.31391178471108     -4.12972499634630      1.59905710862676
  H   5.93567260139080     -2.91238237161702     -0.86263734832665
  H   7.60621651883481     -3.28770291134196      0.85168414998564
  H   6.73743240453457     -2.23835191799606      1.99818325882104
  H   7.53295005131425      0.63888445605894      0.01061190683605
  H   7.19391479984000      0.21438678255543      1.69622188045502
  H   6.30042377483752      2.28348534172068      0.82565162650039
