23
Coordinates from ORCA-job 10464optt
  Br  1.78299173397213      1.95232608077645      2.55543135387973
  C   2.32445724255158      1.48374448655617      0.80198907360425
  C   3.28411662018975      2.20229982821349      0.17495641901158
  C   3.43829606594746      3.67891903373986      0.46958825866718
  O   2.11734530790717      4.27669376247537      0.38915438199221
  C   1.32911335982692      3.68437738762911     -0.55636061324038
  O   1.66721832410132      3.49202658323747     -1.69304636977112
  N   0.15628761375786      3.25860287896759     -0.01074112795029
  C   -0.61340484443937      2.19867391500119     -0.62533608289399
  C   -0.79578515930399      0.98768143786551      0.30579350816392
  O   -1.85725599086798      0.68753514972557      0.74510665527699
  O   0.28355053960963      0.20381794546902      0.64532983506795
  C   1.53931796290560      0.46665456497236      0.14194357437108
  C   1.94191351045037     -0.13847056527293     -0.98360468613094
  S   3.40975354360695      0.20423789516076     -1.80183781073151
  C   3.95455467572811      1.73072642379472     -1.04832112798153
  O   4.89586462376272      2.28895452135611     -1.54511016416239
  H   4.10112328094914      4.12208773366577     -0.26908607927865
  H   3.78717030433471      3.89539578167581      1.47584791049435
  H   0.02943734164105      3.44886756844254      0.97120305013000
  H   -0.09432891954542      1.91534997812989     -1.54170629580156
  H   -1.62423873108868      2.51703018320959     -0.87145429976027
  H   1.30250159400297     -0.87453257479144     -1.45473936295661
