24
Coordinates from ORCA-job 10468optt
  Br  1.09034295734737     -0.12259621716907     -0.03992307009356
  C   2.98748585525501     -0.09083181904499      0.01245102905802
  C   3.70458918764234     -1.25856712882403      0.26604431760610
  C   3.05886506488235     -2.58825007837571      0.52588815967743
  O   3.35142722111937     -3.50849289833414     -0.52407161852611
  C   4.51812066009626     -4.15674141595866     -0.52938460947669
  O   4.68273464487513     -5.14562992996528     -1.17487794370024
  N   5.53588182094631     -3.65794412651188      0.29896138595394
  C   5.97256561550609     -2.36800946510450      0.58331671750604
  O   7.07807670026697     -2.22047463922995      1.04272495630533
  C   5.09853838016652     -1.18905913553239      0.28857345624800
  C   5.75467377103295      0.01480441978479      0.07626240975241
  C   5.02210964077641      1.15861901886939     -0.17459603251329
  C   3.63329011627126      1.12657016356927     -0.20745796470555
  C   2.87427566043204      2.40626583107778     -0.47547132443581
  C   2.29274552447300      2.43818292391605     -1.81949844168114
  N   1.85569977165809      2.47059231591693     -2.87733559379434
  H   1.97820842781277     -2.51572651121350      0.54461252754196
  H   3.40141717988902     -2.99820904983226      1.47799538364675
  H   6.29317801845682     -4.32548001049208      0.38685030508720
  H   6.83474234322045      0.03554817042376      0.11972636119807
  H   5.53121372239189      2.09839318086796     -0.34721643629094
  H   3.54946760002693      3.25648798260556     -0.38088656674200
  H   2.06735011545462      2.53754841855696      0.24731259237841
