23
Coordinates from ORCA-job 10465optt
  Br  0.95459337575268      0.19312090460946      0.27095532104914
  C   2.79900719690576      0.03790829424953      0.05249456255174
  C   3.42996102613604     -1.14583183552890      0.07142276036213
  C   2.79681362555206     -2.47722887152536      0.27285290485969
  O   3.45974029721709     -3.47469884278203     -0.49134482196622
  C   4.80236241814191     -3.59385561792591     -0.40373997586386
  O   5.33595208565627     -4.62508476577305     -0.66678809968848
  N   5.49132029913252     -2.43795856468656     -0.00730982420615
  C   6.86349520869005     -2.62985452914921      0.35498897262028
  N   7.71929791831362     -1.76922927948591      0.66153938662570
  C   4.86466254986587     -1.17594826414806     -0.07548330063142
  N   5.56712145662451     -0.12005062807542     -0.25833830433186
  N   4.91481606454453      1.05061898507371     -0.28145989275776
  C   3.55479131712589      1.28493145458937     -0.13460320329921
  N   2.98811614992857      2.42073834281517     -0.15622487966580
  C   2.77632905350636     -2.88824032587199      1.75108244144990
  O   2.70563261699859     -2.09828818210997      2.64039740695043
  H   1.76291755415859     -2.47647818444119     -0.07685701420766
  H   7.10223078110073     -3.68744862263156      0.35882458594336
  H   7.37710454797601     -0.81648564625775      0.58017340033421
  H   5.52006546815809      1.84595670712029     -0.41150073535704
  H   3.64192983594492      3.18800589061094     -0.29453821723528
  H   2.81573915256928     -3.98159841867556      1.91545652646416
