20
Coordinates from ORCA-job 10467optt
  Br  1.10887890929255      0.14930235597637      0.32366260177355
  C   2.96440056325806     -0.04319744271721      0.12362782668158
  C   3.64233828608748     -1.21698928728137      0.05864220190159
  C   3.15107165244577     -2.59544444461387      0.06564501042876
  O   1.78976720641858     -2.81288549230212      0.07845403938857
  C   1.15452708473098     -2.72283139184308     -1.11703728466586
  O   1.67826398183423     -2.42890772595378     -2.14052756888736
  N   3.89201348696380     -3.61206163555469      0.08775107417281
  C   5.30256196429510     -3.46341962977632      0.11889135138403
  N   6.05820044661936     -4.47059491356429      0.23000039423100
  N   5.87059250465126     -2.19075246898784      0.01639619193041
  C   5.10345935513558     -1.19166975679813     -0.01043453379865
  O   5.72798097392603      0.02618402532536     -0.10161538108975
  C   5.01633650329925      1.15757238024904     -0.06196491723653
  C   3.68046514347793      1.19857629258853      0.05739674916586
  C   5.81687967695680      2.34447367038973     -0.15598903798080
  N   6.42149264983516      3.31509581836543     -0.22664600685441
  H   0.09637226417702     -2.95972416265251     -0.97372693516011
  H   5.48407231906077     -5.30985542812783      0.28899173408665
  H   3.16532502753423      2.14512923727861      0.09248249052868
