19
Coordinates from ORCA-job 10470optt
  Br  1.20791524623819      0.33109586897161     -0.02281192575448
  C   3.02984088165136     -0.05529523205003     -0.02554421038848
  C   3.58155166563082     -1.30043394876148     -0.02647224731585
  C   2.80905249408887     -2.54307132689183     -0.02544396001062
  O   1.61250603229802     -2.63465882606736     -0.02452774638424
  C   3.63461104668660     -3.84419729264923     -0.02659986006732
  O   3.08860253359317     -4.90651797456757     -0.02515744261915
  N   5.02864605089991     -3.68846911072362     -0.03034739850253
  N   5.70777082062512     -2.49330025757776     -0.03034759682055
  C   5.03971309261521     -1.40359323749568     -0.02861473579412
  N   5.80566136257347     -0.23445356394140     -0.02933263070641
  C   5.20792254497519      0.88193324343332     -0.02835819245610
  N   3.83368917171789      1.03551251159551     -0.02656157959573
  C   5.91398235370334     -4.79178687261534     -0.03416779484370
  O   7.09840712603117     -4.66749029041258     -0.03388851482002
  C   5.33567856295526     -6.14248750039757     -0.03921956309094
  N   5.08798226287622     -7.26024413415783     -0.04376598952916
  H   5.77002947076253      1.80960907627118     -0.02893893740156
  H   3.42043728007761      1.95584886803770     -0.02589967389905
