21
Coordinates from ORCA-job 10476optt
  Br  0.97559624097090     -0.03276549605035      0.14781208515644
  C   2.85502637498614      0.01862839848622     -0.00974791878454
  C   3.48988299225464      1.22657497270407     -0.18137134327989
  C   2.85432449164359      2.57422452428949     -0.25931480722937
  O   3.75848792008157      3.57292834056818      0.20850104473473
  C   5.03869078416764      3.56383557597506     -0.18286541622098
  O   5.72140099598066      4.52588483458805     -0.17760116533638
  O   5.54875818982337      2.35360317066755     -0.56222759716962
  C   4.87995070245566      1.18993311090492     -0.32807556129685
  N   5.62166810392616      0.11830569309889     -0.29502299904459
  C   4.98992643343460     -1.03679258170289     -0.11686278453733
  C   3.61206327917309     -1.15959510881310      0.02654702734124
  C   3.06978330899435     -2.49405491857334      0.19381289993209
  N   3.75952064569816     -3.56268077814711      0.21190015642336
  O   5.12369324883205     -3.46040208481200      0.07173048952852
  C   5.80804119960235     -2.26961514588818     -0.06139918770723
  N   7.05855301274115     -2.25766652955199     -0.13023387717581
  H   1.97734254198690      2.64455806427523      0.37913433604599
  H   2.55707282668988      2.81026557341368     -1.28591763943983
  H   2.00511464360216     -2.64836999619788      0.30992279605412
  H   7.43810206295493     -3.20179961923449     -0.06872053799407
