27
Coordinates from ORCA-job 10484optt
  Br  1.67799756131756     -0.19148331759599     -1.12732553102971
  C   3.25445234451462      0.45373903903477     -0.30340436681886
  C   3.25214621518536      1.49268285731702      0.56877386241435
  C   2.05914837715853      2.35676426155219      0.90979583783869
  O   2.52328317129909      3.67195042469436      1.21914087621048
  C   3.00698950854695      4.32858663494593      0.13448105891817
  O   2.46126582217633      4.38732119848874     -0.92099617282279
  O   4.17262346435144      4.88123459469287      0.47276415351116
  C   5.04577374554119      5.20084928270955     -0.61702127748401
  C   5.87991541825655      3.97610779186086     -0.93214755948238
  O   4.97399776403429      2.96518802954216     -1.31272131577941
  C   5.48316201927534      1.66819699129549     -1.52102058301130
  C   5.50079244968652      0.73865475767399     -0.32222011929652
  C   4.55774046831667     -0.22563868236986     -0.19647382090589
  C   5.72058446931484      1.40588046662520      1.01116866526975
  O   6.67319168052348      1.67269279856676      1.68449277720002
  N   4.41328034161576      1.83805664224226      1.30773086307538
  H   1.55522442751080      2.00133712574596      1.80807491868270
  H   1.35905546310092      2.37768471731368      0.07703130057407
  H   5.67339330417055      6.02226105984011     -0.27887492143779
  H   4.45454510704486      5.50357383087281     -1.47991053772946
  H   6.57580821244109      4.20648369004655     -1.74812418301874
  H   6.46061922325893      3.68394130951191     -0.05035146081875
  H   6.51249818842307      1.72321998750422     -1.90059866209513
  H   4.86650031121167      1.20318238426932     -2.29246620967063
  H   4.63245619052735     -0.94451319573122      0.61827260719719
  H   4.32655475119617      2.57304531935030      1.99792980050941
