24
Coordinates from ORCA-job 10482optt
  Br  7.33867436899130      0.91125743787135      1.76811046453869
  C   5.73855709385802      1.69857288511110      1.14189488077564
  C   5.02629561494593      2.50288024613492      1.95980148382962
  C   5.46954801655627      2.84036677881647      3.37323199168276
  O   4.46056895799958      3.57917175130368      4.03340654158384
  C   3.33111408812097      2.85067386599463      4.27415246128604
  O   3.32344594913336      1.78748034974344      4.80085040439997
  O   2.23938273267184      3.48196172931487      3.86082066104837
  C   2.32166336705112      4.54303333897217      2.90607072116535
  C   3.42142691291802      4.41900499968898      1.83607429757639
  N   3.81962526224739      3.04075092770867      1.52476143531598
  S   2.92247382370609      2.15944919006472      0.42098966125625
  O   2.48765405473024      0.96380006610973      1.05722862728206
  O   1.97061981888232      3.07074379190436     -0.13769950511194
  C   4.16926388867595      1.76252755778324     -0.71870593981722
  C   5.38737315461884      1.48327780128915     -0.23854127033700
  H   6.36804599369755      3.45643883243279      3.37080410440661
  H   5.68072559657246      1.91439549853105      3.91173473460581
  H   2.44913417398185      5.49230363088380      3.42868457595067
  H   1.34439763668520      4.52707728906974      2.42942051862076
  H   4.31704701522965      4.95835976961225      2.12707181331636
  H   3.03822521463988      4.86316145229873      0.91794823195308
  H   3.88194238630835      1.71782375121939     -1.75913416326917
  H   6.16279487777772      1.12948705814073     -0.90697673205894
