23
Coordinates from ORCA-job 10488optt
  Br  1.68829788136084     -1.32499852244338      1.55959057816296
  C   2.84300024803402     -0.46541718950173      0.35542954447040
  C   2.67827044027502      0.83117605082093      0.06723030357281
  C   1.66619686365880      1.84732761859726      0.45321656299732
  O   0.61546877391258      1.86641208289016      1.38569495074119
  C   -0.03242325853894      3.05903853856112      1.24292160111863
  O   -0.83487097269304      3.42638593724705      2.02660787558152
  O   0.20065684917212      3.76434125075083      0.07690619774355
  C   1.37863011441633      4.37726727189910     -0.48032522524014
  O   2.08742798913872      3.55466861017014     -1.39438667603792
  C   3.34671101414810      3.09318679428858     -1.06289713360287
  N   4.26733157669219      3.92554098528234     -0.89969828738386
  C   3.54228920925039      1.57310267589983     -0.89305572776185
  N   4.54047565739511      1.08139682246566     -1.51380255907898
  S   5.00411409757375     -0.48864534824245     -1.36830112976080
  C   3.90316333684001     -1.29998330870565     -0.23165543341587
  N   4.02979777660425     -2.52430636085010      0.05305981482131
  H   1.20252645350305      2.03146636434992     -0.50555068351583
  H   2.29021740602640      2.69148007002707      0.74170788214718
  H   0.97417988192431      5.20079231727979     -1.05659283905369
  H   2.04761767010243      4.73189642422824      0.30400823076435
  H   5.14741658860296      3.46193088451246     -0.68232406648917
  H   4.80650440260057     -2.97405996952721     -0.42978378078023
