19
Coordinates from ORCA-job 10489optt
  Br  1.43652378248448      0.34764700217561      1.37924471781617
  C   3.07835752779644      0.10904243263549      0.50855929696692
  C   3.54177734805974     -1.07485725588809      0.06136806310191
  C   4.96981538467233     -1.22079722707887     -0.24305219390621
  O   5.71153787354567     -0.13578663160781     -0.62034686925191
  C   5.40981984328575      1.16450756013080     -0.44983721083846
  O   6.12259022341389      2.01821341893830     -0.85331238290943
  S   3.95152453145601      1.60516723795210      0.46841681834613
  N   5.62803803751594     -2.30032676849904     -0.19904599555531
  C   4.96545881171374     -3.49419557611302      0.13607319119352
  O   5.57667426136854     -4.48423873243198      0.43538508778944
  C   3.48510393340041     -3.48840862908260      0.05463780568619
  C   2.80243641018549     -2.33815113557018      0.01495907228083
  C   1.34560935954426     -2.36766641988813     -0.34400527785274
  O   0.83189648677020     -1.48135743946332     -0.97404884500609
  C   0.60831375887948     -3.56486651547430      0.03488632766542
  C   -0.00685410809787     -4.54393739643959      0.34649062827422
  H   2.99346780867995     -4.45080566290950      0.00084804518394
  H   -0.56409127467453     -5.41118226138582      0.61577972101547
