23
Coordinates from ORCA-job 10493optt
  Br  1.24704436088348      0.47767146847199      0.00305273958587
  C   3.08015098248035      0.17358713087298     -0.07061756218117
  C   3.70694464167873     -1.03682833275703     -0.01949159858373
  C   2.92758058187832     -2.29988304910339      0.01881889273894
  O   1.75525288195467     -2.38399723723153     -0.21693677982709
  C   3.66173107380989     -3.60929798263770      0.37852242135950
  O   3.04782086075765     -4.60808794131631      0.60918166620831
  S   5.42085118442980     -3.61986294201781      0.39406892416600
  N   5.94042739993209     -2.06418726268631      0.13643908730568
  C   5.17420534515233     -1.04541619694164     -0.00536135889598
  C   5.82837116660325      0.25142643853963     -0.17547281822507
  C   7.33244065253489      0.31711749913437     -0.22750243945387
  N   7.96273089302442     -0.03134147797511      1.02767588050634
  C   8.03333707045416      0.88038635345101      2.05261523231756
  N   8.25776992220866      0.68011462562680      3.28220740513087
  C   5.08134736830909      1.34942628694991     -0.23258142225981
  O   3.71939319718849      1.33310004106203     -0.15259988332870
  H   7.64351307847332      1.32519984547668     -0.50562960897826
  H   7.69201330453193     -0.36564598202791     -0.99722726892567
  H   7.89181801675213     -1.00680118236307      1.28106377005089
  H   7.91008472672600      1.91002259208546      1.70886158799070
  H   8.35584102850703     -0.31313433149523      3.49552086620950
  H   5.45133026172913      2.35843163688218     -0.33860773291081
