26
Coordinates from ORCA-job 10496optt
  Br  1.14047273970452      0.09743058065365      0.07492539046265
  C   2.99644456280095     -0.09474873577783     -0.00110236174760
  C   3.65890782595761     -1.26528340416232     -0.19545480799384
  C   2.96854468609569     -2.55242962734056     -0.60500528720665
  O   1.88834291813344     -2.56259093489449     -1.15309004288027
  N   3.70720318601921     -3.67243457890974     -0.42034795567574
  C   3.37203304333548     -4.93109356345898     -1.08015257777968
  C   4.74984349995969     -5.51992104660768     -1.36874670541527
  C   5.57075289907165     -5.11151681257664     -0.14207188583105
  C   5.00913723815361     -3.74000700975081      0.24348382783944
  C   5.85771613715179     -2.54711950753799     -0.16128464482026
  O   7.04649894282024     -2.61678181449041     -0.35366984355879
  C   5.09891961271912     -1.28150047360905     -0.17364956881430
  C   5.77910095351109     -0.11605534634940     -0.03958457639400
  N   5.11335560077549      1.04234612686826      0.10545643511858
  C   3.72241272207986      1.17391994335274      0.17800951796604
  O   3.23235139776305      2.26197423948215      0.35571236584293
  H   2.77175875002378     -4.72148392906603     -1.96236120139274
  H   2.79059425389453     -5.57317484185608     -0.41272078783950
  H   5.16193175909669     -5.05837332337596     -2.26785769525761
  H   4.72414209336841     -6.59741995215254     -1.51804142013184
  H   6.64007204563179     -5.04444220157436     -0.33212668029902
  H   5.40858826806335     -5.81632469170673      0.67329470575942
  H   4.88979272269859     -3.65653700933664      1.33062969197894
  H   6.86051725808147     -0.08822777748273     -0.02404828964426
  H   5.61356488308881      1.91379569166017      0.21980439771441
