26
Coordinates from ORCA-job 10494optt
  Br  4.45593114273810      1.71277346551363      4.04720811512534
  C   5.43385469688486      2.26708733761631      2.51779742486810
  C   5.94971771858666      3.51840787142624      2.39733562695555
  C   6.61564319911591      3.71529747294593      1.07531300589164
  O   7.59522170261189      2.67387375303089      0.87440881010279
  C   7.18814260572231      1.45876345291821      1.16654854667584
  S   8.45971593933383      0.25221277147979      0.99743815506272
  C   9.89899995187354      1.19308197442326      1.62199140917450
  N   11.04061035756694      0.90314946249609      1.16841445220880
  C   9.69158728828089      2.20784469750980      2.66830773702885
  C   10.51517174811184      3.25952697281407      2.65745129196803
  O   10.57980638355838      4.33013084840273      3.46991455909451
  C   9.81500721585258      4.50349009158509      4.59850775038523
  C   8.49761469111398      4.69433281450010      4.61447404938488
  N   7.74015779603552      4.56804455796154      3.46049368694859
  C   6.54145339856822      4.14290253320102      3.56873804697590
  C   5.96079655075131      1.19900508619454      1.71295330907826
  H   5.89494326119980      3.63123089144092      0.25825254214244
  H   7.17002116332141      4.64594512400059      1.02779823207621
  H   11.00657631354892      0.25571142301430      0.38371106898396
  H   8.85565393604963      2.12082870792199      3.34854055563415
  H   11.28384569057643      3.33234390210840      1.89888667650383
  H   10.40851481802662      4.55606659565248      5.50134725541673
  H   8.01507101013088      4.85020532607586      5.57842598499353
  H   6.04552974458445      4.01890044685686      4.53556089304845
  H   5.66141167585497      0.18084241890930      1.90218081427112
