25
Coordinates from ORCA-job 10499optt
  Br  1.02769782333013     -0.03949943144148     -0.39264486370865
  C   2.89016552161443     -0.04863084273120     -0.25050712309594
  C   3.66254451781444     -1.15785282846099     -0.38212718873199
  C   3.07551356471509     -2.50647255059163     -0.73522539378445
  O   2.08629393312924     -2.65556577650337     -1.38885599837172
  N   3.82999514022541     -3.58005147712252     -0.25540583568041
  C   5.13844780119765     -3.45095931551972      0.37480875442826
  C   5.67553899036703     -4.86615063901775      0.17214624616049
  O   4.51482160378046     -5.67777383692432      0.03391834099902
  C   3.45000864021248     -4.92785107108532     -0.35666504275230
  O   2.40821159828726     -5.38173289305643     -0.68405695985142
  C   5.91221444722516     -2.33715016030814     -0.30138236694622
  C   5.09783360463845     -1.08006040237894     -0.19859883799632
  C   5.63952599324187      0.11742114575071      0.08076296731813
  N   4.86624863782313      1.23443360575519      0.18674946618333
  C   3.47891882720855      1.27030631997940      0.06034873158896
  N   2.76850322446786      2.31739800750161      0.19101050994190
  H   5.01909895552792     -3.22880257783825      1.44003644273396
  H   6.25548947756876     -5.22987081507518      1.01620681810808
  H   6.27007329279214     -4.93435632393582     -0.74267158402378
  H   6.07452457825941     -2.61741203823608     -1.34756156396517
  H   6.88821853956691     -2.20289272979347      0.16702667436572
  H   6.70055293939964      0.26016164223269      0.23384290648038
  H   5.31363504014581      2.11074349941695      0.40448222887294
  H   3.32692330746071      3.14162148938408      0.40036267172721
