20
Coordinates from ORCA-job 10505optt
  Br  2.55537743153850     -0.47882383648451     -1.73071127748508
  C   3.64628169982212     -0.03409218553234     -0.28990428185304
  C   4.24147349088925      1.15223561003694     -0.09602585456321
  C   5.19322779827320      1.25546292350060      0.98778445996527
  O   5.81516476402459      0.11192744689390      1.37519127732650
  N   5.13728372821421     -1.07396737959162      1.28932440854031
  C   4.06908671429467     -1.11437599538229      0.58809286684123
  C   5.72628285930632      2.47841682900813      1.22823707413100
  C   7.02115674271261      2.65074663304714      0.57727662074227
  N   8.25944960484756      2.67164317774292      0.82622905975513
  C   8.87680210426715      2.72287590715162     -0.48789844180759
  N   10.11124258602884      2.78290781758722     -0.69393872923526
  N   7.91540454975734      2.67890981709984     -1.54508611546944
  C   6.81225792122652      2.65225307565246     -0.92974369555090
  O   5.60565449920686      2.63706325715946     -1.54379131118224
  C   4.33177558749400      2.24059301474292     -1.12793085657856
  O   3.40213934589338      2.71008850781331     -1.68919890590043
  H   3.56816377558505     -2.07332223998965      0.57091777166462
  H   5.04852472320958      3.27302178466258      0.92560508294910
  H   10.59725007340820      2.79143583488135      0.20357084771032
