18
Coordinates from ORCA-job 10501optt
  Br  1.18417072722021      0.03722247701649      0.08742455840337
  C   3.01883718021330     -0.17757841422233      0.09333813317214
  C   3.67617728540667     -1.33204440929025      0.09436459951931
  C   3.23630073858746     -2.75746207289356      0.09195118464163
  O   2.13794206949382     -3.22738389368347      0.08964599478619
  N   4.46240601440494     -3.44211237657715      0.09313746765033
  N   4.56674128234612     -4.76270134608256      0.09145039534913
  C   5.77042316987390     -5.21882700576600      0.09273114657360
  C   6.95525101759867     -4.33742882342071      0.09582577646303
  N   6.85986550075664     -3.06467012546712      0.09763585788421
  C   5.59282412087758     -2.54389375814904      0.09649585677569
  C   5.11778781320270     -1.28767634970558      0.09747981084696
  O   5.76330256963941     -0.09943605800012      0.09970802674523
  N   4.97835673597305      1.08701130287388      0.09972780436063
  N   3.76270599447690      1.03421011860081      0.09674281871766
  C   5.95583103003729     -6.64155715709219      0.09088144324064
  N   6.18479413602645     -7.76489403304567      0.08987177894216
  H   7.93928261386485     -4.79377807509540      0.09658734592809
