23
Coordinates from ORCA-job 10523optt
  Br  1.10485264589700      0.06403154283427     -0.45842005766501
  C   2.92231249139118      0.07125860025575     -0.01279142527426
  C   3.61313700686348      1.25371306726837      0.17671343849679
  C   3.29509560542675      2.71668064940009     -0.03131738766552
  O   2.24646203334842      3.21869641203933     -0.32947599999604
  N   4.49912036817871      3.36223719413108      0.15826557710306
  C   5.57068543635167      2.51308377490681      0.60590292729449
  C   4.94471724179687      1.17328157805491      0.49497143094995
  C   5.62988960601558     -0.01505533154725      0.46295617837441
  C   7.13063669632992      0.08788449710541      0.51391492547043
  N   7.55860049305027      1.34236168442600     -0.11780605760033
  C   6.87143898833774      2.51923528341519     -0.19588677459533
  O   7.25908806989897      3.49057040762006     -0.79926775424486
  N   4.98893749301562     -1.15809959313135      0.28917696216971
  C   3.65860190336465     -1.12815611080388      0.10411172576004
  C   3.00368304172474     -2.39619357061593     -0.02502589910884
  C   2.44542208749615     -3.45065739484499     -0.12457131632189
  H   4.58619932467656      4.35983765425105      0.05312000367158
  H   5.85385878383644      2.73272431445057      1.64506639532543
  H   7.56973207003498     -0.74695369644292     -0.02903153075561
  H   7.48000554044202      0.03382323318378      1.55037240991191
  H   8.45550797149841      1.35333476284668     -0.57944625231015
  H   1.94901510102381     -4.38763895880305     -0.21353151898996
