25
Coordinates from ORCA-job 10525optt
  Br  1.05367858548713      0.39600417733170     -0.04757782483650
  C   2.90363270146565      0.21833396163954     -0.25623403739894
  C   3.76444849214238      1.25495311397077     -0.18428462350743
  C   3.46666417564068      2.70061505000735      0.16432636419046
  O   2.39905177548412      3.22025834101707      0.34626097569675
  N   4.69120381231147      3.31188528142322      0.26967392875814
  C   5.79646444173960      2.53645459885920     -0.25545419037053
  C   7.09782746599870      2.50186089215080      0.52493719605757
  C   7.99186775086899      1.45433226142330     -0.14776596453954
  C   7.39827422808050      0.04422489051941     -0.07707335679705
  C   7.65898581413762     -0.59498527602879      1.29087285746690
  O   8.27882663462341     -0.05904430663188      2.16099853546379
  C   5.90218770107519      0.02744676874584     -0.31010544014549
  S   5.11756268552025     -1.50679389452394     -0.43724229540167
  C   3.34927097590809     -1.16810357525896     -0.49273692915892
  O   2.63780981274830     -2.11493507715142     -0.66972928318817
  C   5.18489578405281      1.16051310807405     -0.30893841206452
  H   4.71973128704260      4.31653070814314      0.34793925545000
  H   6.02169455420714      2.86439579486064     -1.27953679292173
  H   6.90289177307190      2.23447524938020      1.56532743254630
  H   7.59042395709424      3.47505234361639      0.51047259441924
  H   8.97102238439758      1.43636439370106      0.32759637745781
  H   8.13730526949568      1.72548850273537     -1.19597341914873
  H   7.88481978372804     -0.61463784610148     -0.80660508834965
  H   7.22745815367787     -1.60268946190260      1.43385214032190
