23
Coordinates from ORCA-job 10527optt
  Br  1.26310792957142     -0.02842439711229      0.01385865135919
  C   3.08934628199593      0.21271618386434     -0.22650303599974
  C   3.74929536500622      1.36801117704986     -0.04285678047598
  C   3.42092684366158      2.71796080736087      0.50308189712414
  O   2.35067944848692      3.18320778538466      0.77618810319955
  N   4.65799235973121      3.34786850487624      0.68077809656566
  C   5.74839422072824      2.66946243373216      0.00680731189633
  C   7.12091426033872      2.52157765661325      0.72372823452941
  C   7.59335155201776      1.05951324871622      0.80369870747716
  O   7.21423069395754      0.24912725919730     -0.32745394094363
  C   5.86600040922568      0.21772907440934     -0.44079770316318
  C   5.14986212373455      1.32551170206082     -0.23013299644815
  C   5.15295207103377     -1.03685738114116     -0.65789881964902
  O   5.58985018568201     -2.11489395693782     -0.88377870678171
  O   3.74113650951744     -0.89372544943443     -0.58965226661914
  C   6.04244280943330      3.31503382798681     -1.35784069939244
  O   5.58177418410138      4.36279089478190     -1.69334813246258
  H   4.64176287682314      4.35881169418739      0.69596088279577
  H   7.02930141407946      2.91968879678735      1.73410235894368
  H   7.86999003600802      3.12271449109404      0.20474801906593
  H   7.17807689628215      0.58376984602988      1.69490476004029
  H   8.67771791244420      1.00769483859693      0.84666527159987
  H   6.74389361613926      2.74171096189632     -1.99325921266142
