23
Coordinates from ORCA-job 10524optt
  Br  1.15656743717608     -0.18775873128994     -0.05443327330047
  C   3.01369658333702      0.06228568325599     -0.04870769944080
  C   3.63225978738227      1.29183379234705     -0.04690481558397
  C   2.87990861214010      2.58969738519026     -0.04751730722971
  O   1.67098975646006      2.66748878997272     -0.04805337658041
  N   3.65963593102090      3.71715132664894     -0.04739562208021
  C   5.03221843455700      3.72530761855780     -0.04607745930145
  C   5.91788064545295      4.78042545182520     -0.04642957818871
  C   7.24949372293352      4.21840541030687     -0.04443695654053
  C   7.17015197139261      2.85692124603566     -0.04312150595083
  C   5.77079040892521      2.50933444651425     -0.04414616443098
  C   5.07537579380514      1.32438039245057     -0.04444615763400
  N   5.73658894415425      0.12411263894380     -0.04286877144635
  C   5.11605042298286     -1.07251499715704     -0.04385339677712
  C   3.76407294586531     -1.14472866010201     -0.04687274195203
  C   5.53858903686213      6.14280263320096     -0.04879498193660
  N   5.17962860006738      7.23637030623353     -0.05150609623005
  H   3.15120067893855      4.59277449598751     -0.04800345784107
  H   8.15290252491842      4.80817933687155     -0.04429127854636
  H   8.00956062318492      2.17824790717979     -0.04177151347215
  H   6.74557383402787      0.16179855860860     -0.04107180486555
  H   5.75240717784681     -1.94590118905460     -0.04235799479692
  H   3.26245612656857     -2.09861384252749     -0.04793804587374
