21
Coordinates from ORCA-job 10531optt
  Br  0.94141043198237      0.05464836380427     -0.01320182852818
  C   2.81744754362707      0.02878757280277      0.10291334257662
  C   3.47024889042859     -1.19464751280466      0.10519520512095
  C   3.23355481509596     -2.69684353489950      0.06641728041367
  O   2.21836179953987     -3.32606452743594      0.04352667068682
  N   4.53874179229105     -3.28112685075333      0.06600776206197
  C   5.53383271902510     -2.30957594529727      0.09434387404103
  C   6.82967699211266     -1.91798567275652      0.07687464891166
  O   6.93312447012810     -0.51652283032712      0.09486548620821
  C   5.65794499307797     -0.02946344057394      0.11681915140709
  C   5.03234265222145      1.20564991436043      0.09897721212635
  C   3.61723942369794      1.20913199713183      0.11593572846609
  C   2.97990487593774      2.56333769245728      0.20570853351779
  O   1.97504251243768      2.78465167624289      0.82635755479090
  C   3.66895434536863      3.64915123052869     -0.49471205080693
  C   4.20500541117185      4.54928850582353     -1.07573594716161
  C   4.82616716327934     -1.09981991342963      0.12806555944853
  H   4.64799897292335     -4.28064239803722      0.04712926781620
  H   7.77674414288455     -2.42628369727982      0.04981398192155
  H   5.56296535888226      2.14790269908217      0.07750500331575
  H   4.67129069388627      5.35742667136110     -1.58880643633446
