22
Coordinates from ORCA-job 10538optt
  Br  -0.20386288495014     -0.47773256624365     -0.28677265511757
  C   1.47887858988554      0.28459526365748     -0.02191337154169
  C   1.69680003936419      1.61355438515327      0.07482514777614
  C   0.86653811965142      2.83599840246040     -0.08212545583927
  O   -0.29964966852827      2.90305962594291     -0.34138155115824
  N   1.71161511479449      3.96368528654390      0.14620583459848
  C   2.91404783047267      3.55677109037600      0.38308433763777
  N   3.83110669716713      4.42315044903392      0.90938190996309
  C   5.01549063012649      4.82426335224156      0.79806499607260
  S   6.31585720890957      4.36040220188774     -0.32876169242127
  C   5.50714393023849      2.86842155424842     -0.76087397819067
  C   5.40072834048313      1.89401628452516      0.14880921564537
  C   4.10506682594910      1.22707428975293      0.19698317275236
  C   3.03410534968036      2.05344251582539      0.24181206058004
  C   3.87654910820995     -0.21886187201026      0.15974001112379
  N   4.72984811993875     -1.16006590960485      0.17337736464174
  N   2.51838341467881     -0.57927202789836      0.07417655629359
  H   5.36355961264082      5.58395057523938      1.49861490611311
  H   4.82976261315801      2.90930639785254     -1.60594896731083
  H   6.12506600576750      1.78338479223004      0.95025589793131
  H   5.67775156709367     -0.79770812406768      0.21337234053898
  H   2.34721343526827     -1.57443596714626      0.01507391991115
