21
Coordinates from ORCA-job 10533optt
  Br  1.10640246877698     -0.28787925642088      0.05894003310278
  C   2.92715260845213      0.07981820051121      0.05861208318337
  C   3.51201434841894      1.30622017149996      0.05881482075251
  C   2.78993989902910      2.61008057069318      0.05936116806537
  O   1.58015647481988      2.66083816857150      0.05975247048386
  N   3.57784559434423      3.75092088969069      0.05941901032580
  C   4.87160328470317      3.68647858598178      0.05904335605992
  C   5.64139582957868      5.00450251721267      0.05913192697558
  O   5.05900229256577      6.06268992582584      0.05953544608977
  C   7.08755762937383      4.87282833398771      0.05873304520321
  C   7.69639806664930      3.66741364697024      0.05825013682980
  N   7.01778342379632      2.49411332242521      0.05815116491911
  C   5.63766307975483      2.46544578631117      0.05854886878804
  C   4.94576119235577      1.28754597061146      0.05843587336493
  N   5.66168608182752      0.09155789821317      0.05793848982331
  N   5.07528258319220     -1.00735601332065      0.05777952737786
  N   3.72321406563556     -1.02150352813123      0.05810635405863
  H   7.67410194727487      5.77920442905593      0.05879616504484
  H   8.77403873432637      3.57137411870219      0.05791031345631
  H   7.50170336344675      1.61037709874693      0.05779185627722
  H   3.32429703167776     -1.94867083713811      0.05794788981780
