17
Coordinates from ORCA-job 10536optt
  Br  10.82944564239214     -0.13038337936993     -0.09828233656519
  C   9.62285221973643      1.19409522995286     -0.58489447251486
  C   8.29664032189723      0.98198517338436     -0.71068584799062
  C   7.30432072534986      0.01347137715703     -0.04114595906939
  O   7.39875398502686     -1.14840920599824      0.13765982237459
  N   6.21280350533759      0.85461613732124      0.50241446338765
  C   6.31783593711681      2.00724439875251     -0.02781928640926
  N   5.97946580078032      3.30710134288403      0.50509508567709
  C   6.92278954831695      4.04712207441137      0.03085974021694
  C   7.81117696585344      5.15704124493983      0.62578297968825
  O   7.53548161368821      6.15478429061251      1.19017391656064
  N   9.18548640545993      4.65653526398039      0.42088972228137
  C   9.16954503953533      3.73102971874103     -0.46939564090299
  C   7.84486856569578      3.39954827656857     -0.91940705596776
  C   7.48656811261070      2.13082584218843     -0.92244943134877
  C   10.21805463723843      2.62578696342882     -0.67838103506141
  O   11.38091097396392      2.82760525104516     -0.82241466435628
