20
Coordinates from ORCA-job 10541optt
  Br  1.14386676380881     -0.25470036684497      0.09307857216656
  C   2.97997218793396      0.02741380095691      0.09020334409533
  C   3.57408244751149      1.26291366147804      0.08975020304366
  C   2.88243342143809      2.60422097386230      0.09082929778028
  O   1.67950185080014      2.67856749059999      0.09154461003684
  N   3.69139938393365      3.72610447804372      0.09102238625412
  C   4.96852773451809      3.59418836404872      0.08977644582219
  O   5.66741133286104      4.77160274276761      0.09015600662176
  C   7.01409541554442      4.73409651046416      0.08912639985431
  N   7.77431005153539      3.72309831131685      0.08764723024296
  C   7.18378285924111      2.44745177523201      0.08694288519728
  N   7.88239265407529      1.37598278264443      0.08563262291021
  C   5.73728758064549      2.40518762141817      0.08815253966562
  C   4.99263368435617      1.23786650976749      0.08811603007707
  N   5.58778609630358      0.02003321346681      0.08662511798204
  N   4.95774271506904     -1.13063677486203      0.08672055718078
  N   3.68788699332526     -1.14819255855134      0.08852964821398
  H   7.41771563380437      5.73990824464470      0.08986556602584
  H   8.87534222100511      1.59558769064987      0.08505827741638
  H   6.62582897228944      0.02130552889654      0.08522225941276
