23
Coordinates from ORCA-job 10547optt
  Br  1.30811818790560     -0.21535943549071     -0.61652814883335
  C   3.15328340030298     -0.15549123624832     -0.27069286304173
  C   3.76988875072672      1.02944080924217     -0.11768085551280
  C   3.26682122665225      2.41328229738411     -0.14305220932362
  O   2.16850739789605      2.87128178422384     -0.35983728614454
  N   4.40249050973603      3.15956026675666      0.18058685153124
  C   5.52853157600220      2.38199630370742      0.37523394962519
  C   5.18589348156083      1.08274904873418      0.20977068645447
  C   5.89901201711973     -0.14206726078834      0.20476029453070
  Br  7.76748647002381     -0.01061182015719      0.44728562799979
  C   5.25126661204338     -1.31457923598426     -0.03641759420211
  C   6.02233113739136     -2.54345190437072     -0.31083230514998
  O   5.58148555564100     -3.53232240255895     -0.84359133566952
  N   3.84053989925537     -1.34231981571444     -0.20884123939339
  C   3.11500922626935     -2.54112233551375      0.19701289349758
  C   2.59415238887049     -2.43471288671135      1.61309002825217
  O   2.82686684251545     -1.51251876793993      2.33813444817844
  H   4.36730340512667      4.16317344306460      0.24536279255676
  H   6.48840639805268      2.81657842329652      0.59793648404994
  H   7.07703947281363     -2.48835055269591     -0.01536150063584
  H   3.76540795729674     -3.40836579776073      0.12587749231538
  H   2.28265964908928     -2.73135179980049     -0.48029694832710
  H   1.97749843770830     -3.29243712467441      1.94208073724231
