23
Coordinates from ORCA-job 10549optt
  Br  1.15039697959775     -0.01174931829334      0.17689160760843
  C   3.03199042812356     -0.00218499144645      0.13433974470886
  C   3.73533346035475      1.19464912228704      0.12706954841911
  C   3.27056548395095      2.61966977455977      0.13933266402431
  O   2.14615036692113      3.04961734268598      0.15851760606925
  N   4.42333869748864      3.35973434489788      0.12273695441877
  C   5.64641109483861      2.59143125583470      0.10037512386166
  C   5.11721525105598      1.18652482672138      0.10388215125892
  C   5.83004187200477     -0.00250596192943      0.08771418626393
  C   7.25944810719595      0.00226814602561      0.06668229007234
  N   8.40492341806011      0.06620769191527      0.05021601529613
  C   5.10326627612739     -1.19509525112777      0.09101183199646
  C   3.70981130270190     -1.21702580368549      0.11314495329517
  C   3.00757724943119     -2.55126488846228      0.11072368209619
  N   3.90074526897106     -3.69448552253096      0.07887786005660
  C   5.13630164038138     -3.53016194189074      0.06380155903149
  O   5.82715368092641     -2.34353671859018      0.07177903101357
  H   4.38706938527096      4.36478816864277      0.12439199574233
  H   6.27384588796474      2.77982186512872      0.97576654773174
  H   6.24537269611496      2.78605118251797     -0.79338497565189
  H   2.33549314849319     -2.61810704077864     -0.74830330323910
  H   2.36820238604940     -2.64025584922259      0.99231872982044
  H   5.83534591797518     -4.35739043325920      0.04011419610529
