23
Coordinates from ORCA-job 10556optt
  Br  1.93425336533750     -0.02986373704112      1.87416126543660
  C   3.34594504355281      0.05471126325730      0.65084441810673
  C   3.81404488647898      1.24040628881282      0.20947094878103
  C   3.42940768983408      2.64184878609411      0.52748722056090
  O   2.57865366125221      3.06815758184170      1.27979098785744
  N   4.28612767507382      3.38798899872397     -0.24683932004952
  C   5.17627418715008      2.60575286376479     -1.01245989939429
  C   4.90641768092121      1.31662135639037     -0.75004816090530
  N   5.45166007847881      0.12308618429114     -1.19342054967810
  C   4.99179650515861     -1.05929636262388     -0.73375139988651
  C   5.69140007309053     -2.26941690771677     -1.32045224220566
  O   5.57572892638540     -2.52246720607908     -2.48428921481445
  C   6.63047319825542     -3.02580377895370     -0.40992998280594
  C   7.95373959544682     -2.29410961364206     -0.36156033056955
  O   8.17244849441374     -1.28248123166146     -0.96837793978476
  C   3.96507412851408     -1.15332025817259      0.15794877442465
  Br  3.34712197380384     -2.86867131250767      0.64606614387068
  H   4.25833261308169      4.39285705807868     -0.23978341028042
  H   5.90662220852013      3.05613763080041     -1.66027497928454
  H   6.27225359556774      0.11331793817573     -1.78383331926401
  H   6.79770872227786     -4.03157436879707     -0.80190476059231
  H   6.24234234160723     -3.11371725593294      0.60753581979323
  H   8.72817335579720     -2.75016391710269      0.27861993068412
