22
Coordinates from ORCA-job 10558optt
  Br  1.23031482400605     -0.33202494201375     -0.50830916922160
  C   3.04640351628696     -0.07134771301342     -0.25604942865325
  C   3.63840360200687      1.11549738182143     -0.12564885608045
  C   3.12296894639281      2.50400047932296     -0.13811559704532
  O   2.01103649371574      2.91722831799054     -0.31200955642851
  N   4.28318378272265      3.27056017628373      0.06708872393106
  C   5.44065245978277      2.44666334597522      0.17561218567405
  C   5.06671803874015      1.16647068601078      0.06732373057351
  N   5.73826930415923     -0.04205337499435      0.12429615635839
  C   5.10501730715687     -1.26301071640985      0.02055226505168
  N   5.59936384464581     -2.41192993517673      0.10173983826037
  O   3.73957251096708     -1.22240007133478     -0.21534809664145
  C   4.31322864787115      4.65608149585355      0.06577668315687
  N   3.59630290772580      5.46942257104112      0.79734757109125
  C   4.03522845327663      6.69091111824119      0.39630017222384
  N   4.98122168573607      6.67337191969674     -0.51522356610009
  N   5.14740908880483      5.35735460131900     -0.72712758052209
  H   6.40263499866577      2.89103425165434      0.36889759487477
  H   6.72530097404044     -0.06762667615747      0.31768695758183
  H   6.59986523365069     -2.39532614899394      0.27021082382135
  H   3.65092239162064      7.61519030034337      0.79494486656549
  H   5.78898098802493      5.02293293254029     -1.42694571847171
