20
Coordinates from ORCA-job 10551optt
  Br  1.14397557831153      0.05022534263990      0.20542343089453
  C   3.00592111401389     -0.04066188861962      0.11932506605182
  C   3.68138050530225     -1.20082609684532      0.08949796863436
  C   3.25587449066840     -2.62486514668162      0.08569856088493
  O   2.15814488835069     -3.07892848888758      0.16825433349742
  N   4.45851259393898     -3.42664972241202     -0.05688305779430
  C   5.46414964906053     -2.64456467593103     -0.11945713589549
  C   5.10831918241853     -1.20282281392134     -0.02311500939469
  C   5.84502492642938     -0.07508811351851     -0.01406725430001
  C   7.32607122739322     -0.04901410879437     -0.15285204015747
  O   7.98736730052922     -1.05346633306966     -0.16914975427929
  C   5.11778798677533      1.17831682108649      0.17380850660260
  N   5.73314946451789      2.27594759589176      0.35667891957664
  O   4.90509936704764      3.37854840344181      0.61758060368140
  N   3.75263209158667      3.46237330771196     -0.17800892903559
  C   3.16245903758903      2.36393650956888     -0.34622016219997
  N   3.69890099743327      1.14856095457232      0.12341701396374
  H   6.47985795710093     -3.00084941406324     -0.22686439345696
  H   7.77679728506327      0.94903211939925     -0.24979592218718
  H   2.25557435646929      2.33279574843196     -0.93327074508647
