22
Coordinates from ORCA-job 10569optt
  Br  1.16858209163433      0.20219608016344      0.07242843657307
  C   3.03791341827920      0.17423722132436      0.07089578591257
  C   3.78917742438654      1.28323330051325      0.01221599153661
  C   3.38324380405172      2.73130886467052     -0.06519762663573
  O   2.27522777119827      3.20811122365558     -0.08593794052439
  N   4.58016006532466      3.40366896780603     -0.10719164404726
  C   5.67716071431382      2.52802462310945     -0.06768370012230
  C   7.04902785064889      2.95262917297838     -0.10792329890906
  N   8.03858070762237      2.15892667810346     -0.08065043042102
  C   9.23962217900513      2.99158495071046     -0.16752340444104
  C   8.70897287830451      4.44118607982475     -0.16431198222164
  O   7.27618544705972      4.28609001096302     -0.18607539990108
  C   5.24053599763024      1.25229916176369      0.00638100633179
  S   6.11783594711189     -0.23672102660078      0.08101789715130
  N   4.92162107692561     -1.36798601824008      0.14990555699669
  C   3.66391485850343     -1.14255534545910      0.13935808218293
  H   4.65305143544991      4.40616012434045     -0.16494226802490
  H   9.78669132284850      2.75021086978887     -1.07991509050762
  H   9.89778979612368      2.78758979892668      0.67684074196071
  H   8.99970159376045      5.01623456697061     -1.04089564215736
  H   8.97419262584089      4.99346192205403      0.73591452685644
  H   3.00781099397620     -2.00689122736712      0.18329040241128
