20
Coordinates from ORCA-job 10566optt
  Br  1.07259257613899      0.22989653124096      0.05490553813809
  C   2.91985164982436     -0.01490642925318      0.05662306188852
  C   3.55335189003530     -1.23632187953254      0.05665693200179
  C   2.89354486572697     -2.56014036060192      0.05571665833862
  O   1.69007625071783     -2.69600479133179      0.05517929894717
  N   3.74137154424279     -3.67925369438171      0.05552984165310
  C   5.02703955134897     -3.55380469599149      0.05633073704786
  C   5.71229626185246     -2.30934084140606      0.05743902297131
  C   4.98221794958646     -1.16655949303508      0.05761813428454
  C   5.62252315894248      0.11959451007718      0.05869779393178
  C   7.07277177913287      0.08094479662398      0.05958729131293
  C   7.69389264638859     -1.10935925605667      0.05923418663701
  O   7.09255620063295     -2.31341414812913      0.05821202147261
  C   9.12826191162771     -1.20937722893212      0.05988719614591
  N   10.27247336502789     -1.26358430473556      0.06054390428408
  N   4.97690055403084      1.23695911561617      0.05882381803420
  N   3.62023098808893      1.12967007726524      0.05772406425659
  H   5.62643446531616     -4.46279940519736      0.05616689706621
  H   7.64982606628410      0.99322406036377      0.06038770125091
  H   3.13278632505328      2.01257743739733      0.05773590033675
