24
Coordinates from ORCA-job 10568optt
  Br  1.04932701511772     -0.11368520406126      0.01320136723844
  C   2.92783784830275      0.07227213827996      0.00956311832932
  C   3.60450203072267      1.27004074452796      0.00538834399773
  C   2.91380981544678      2.60388301796001      0.00522078371858
  O   1.70845220508526      2.72903241691431      0.00912856905067
  N   3.72150992743639      3.69695515192953      0.00288556479131
  C   5.16188552360315      3.76851823544913     -0.01266713318270
  C   5.81077516231715      2.41898445738496     -0.00255408872410
  N   7.12110576720071      2.42695134683756     -0.00272666571770
  C   7.77879862047429      1.25665319410122      0.00171636517333
  C   7.15025367789739      0.03228043024431      0.00589591127802
  C   7.91306366588640     -1.17429543388998      0.00929284467727
  C   8.55373478038328     -2.18828628175463      0.01179092733845
  C   5.73005794968349      0.00480977047973      0.00684051711167
  C   4.98915500483538     -1.19779536384464      0.01102564537469
  C   3.62937604674306     -1.15802653834114      0.01198015478256
  C   5.03414680317491      1.23280204530191      0.00322151796541
  H   3.20546336150128      4.56389312695676      0.00158262376672
  H   5.52620256188663      4.32501537972443      0.85520215765992
  H   5.50971728616856      4.30333901380306     -0.90109228077396
  H   8.86048846096766      1.31066962283900      0.00154002084057
  H   9.13117641890732     -3.08215950488494      0.01412801619070
  H   5.51664477838629     -2.14274208935980      0.01348832681046
  H   3.05351528787140     -2.07310967659746      0.01494739230265
