22
Coordinates from ORCA-job 10572optt
  Br  1.06431020866933      0.39433617149390      0.01620391930395
  C   2.88415929964271      0.05225305853300      0.01947056191129
  C   3.48289093272451     -1.16962849003865      0.02089365047433
  C   2.72094820709419     -2.46367270048357      0.02045625515758
  O   1.51554506556162     -2.49319305200357      0.01951790398780
  N   3.45944779117144     -3.65273451789543      0.02135520139148
  C   4.74537746155511     -3.60024469292704      0.02306587984144
  C   5.56113116648573     -2.42127010209464      0.02408936470006
  C   4.92753388327946     -1.22889373600453      0.02294749981104
  N   5.58620381848800     -0.00831107678303      0.02364360223795
  C   6.93961785444117      0.27027286714238      0.02584403214315
  C   7.08820987802824      1.62293385901065      0.02596071254778
  C   5.78917906353289      2.22711247965654      0.02379974690863
  C   5.46545705802892      3.60643900678775      0.02309027523486
  C   5.20434428080030      4.77652898458175      0.02327388363945
  C   4.91045917035655      1.17901974684879      0.02243700192340
  O   3.56202241046635      1.20513470861098      0.02016282159316
  H   5.26285653463877     -4.55787759535405      0.02376463064502
  H   6.63635043508320     -2.50787722038686      0.02561630673762
  H   7.66706103496187     -0.52009722251395      0.02722829474704
  H   8.02037364647777      2.16166931674115      0.02744618442606
  H   4.96552079851185      5.81310020707843      0.02273227063690
