22
Coordinates from ORCA-job 10578optt
  Br  1.07429108942275     -0.10012113459006     -0.30465166961060
  C   2.91606023856888     -0.22927624517746     -0.12507370484334
  C   3.61386261799462     -1.37423323378233     -0.06731427843389
  C   3.20583612112779     -2.80491115481399     -0.13785132835399
  O   2.10525583356888     -3.27023469276177     -0.26827034162837
  N   4.38119567919309     -3.50634537713595     -0.01415757746175
  C   5.59265325206061     -2.70952185860913      0.09442072007026
  C   6.54873679520491     -2.93026068547132     -0.99516260893893
  C   7.33746805433133     -3.09062824397347     -1.87964661750461
  C   5.02793418569295     -1.30365426050135      0.06963987272002
  C   5.67677094032375     -0.13354668753901      0.14877052638309
  O   7.01592968194394     -0.06672325070027      0.36517608846234
  C   7.77631169459678      0.69822481735991     -0.49729315973183
  N   9.00272331641293      0.85795124979571     -0.35621018336198
  C   4.91228760168457      1.11105476815835      0.09215198801047
  O   5.35163417741909      2.21578742222230      0.15014587800601
  O   3.53160983705370      0.95241521667501     -0.05639155228906
  H   4.39780647924018     -4.50824264403642     -0.11239911129240
  H   6.09878939916072     -2.88571536566315      1.04897431305256
  H   8.04364841103068     -3.23502260770448     -2.66331440838598
  H   7.21591723306409      1.13404966670400     -1.31949290330160
  H   9.35327736090365      0.38295430154491      0.47595005843358
