21
Coordinates from ORCA-job 10570optt
  Br  1.09904658679569      0.24357712334861     -0.33748076859309
  C   2.91956961056178     -0.04192956620805     -0.06933487720528
  C   3.56069990892367     -1.23695259131452      0.03454654042692
  C   2.80938459469504     -2.51118181901834     -0.06184542709710
  O   1.62153678884600     -2.62743318763329     -0.23861517109960
  N   3.59460765570362     -3.63997426428615      0.07211475266817
  C   4.95207140048676     -3.63707070558316      0.21655614387016
  C   5.67298600834136     -2.50833764228619      0.31487122409638
  Br  7.54838199608937     -2.72970519089794      0.40845286652092
  C   5.00750780521052     -1.21794807259181      0.26768976431019
  C   5.62220823366297     -0.01042513188524      0.42571295919840
  O   6.92110734836088      0.11747807075065      0.80876780216334
  C   7.79879860795159      0.72954899972052     -0.05654597717468
  N   9.01491755484445      0.84933993510986      0.18692803598556
  C   4.91155834257559      1.24279908065177      0.27894799792052
  O   5.37245761281609      2.33889009348957      0.34650906029147
  O   3.54946849910438      1.11772748073328      0.01504084461180
  H   3.09285619497854     -4.51270213229915      0.00036779356064
  H   5.42442015265529     -4.60877151329213      0.23731660292024
  H   7.34582681902270      1.08392570738964     -0.97915008424626
  H   9.25258827837367      0.45814532610208      1.09914991687127
