21
Coordinates from ORCA-job 10583optt
  Br  1.09609129727806      0.26743869178266     -0.03568723100875
  C   2.92576239279354     -0.05600979057513      0.04474638005799
  C   3.54240583617936     -1.26709713672685      0.05669776171209
  C   2.83925923794362     -2.57910302953386      0.01778890230102
  O   1.63215828813165     -2.65410005698969      0.01860480665156
  N   3.64055568136059     -3.71172570211829     -0.01954952488957
  C   4.93582540564198     -3.60577892235548      0.01338577241276
  C   5.68798999157628     -4.83362910965026     -0.03418964161690
  C   6.35670939209326     -5.82664547030214     -0.07530564637839
  C   5.69796508230909     -2.38472178761548      0.09359564911235
  C   7.20367636357635     -2.40326836164166      0.14817205034400
  C   7.80280848600431     -2.64574008496589     -1.16776529477781
  N   8.26632150846816     -2.82804873660834     -2.19944026131513
  C   4.97893761085652     -1.22966394552841      0.10477152083503
  N   5.65578630097695     -0.00332635235402      0.16303483032863
  N   5.03714762933754      1.07621492229445      0.15713994160336
  N   3.68904837338653      1.06209515045608      0.08947386470929
  H   6.93560107774767     -6.71909450589802     -0.12269776345949
  H   7.54696285486239     -3.19037735362339      0.82115735583864
  H   7.57285470253585     -1.44760500366973      0.51675660624410
  H   3.26913248694028      1.98018658562345      0.08230992129523
