24
Coordinates from ORCA-job 10582optt
  Br  0.89354462872405     -0.29243631458935      0.33524678619123
  C   2.74984950279968     -0.17299406804837      0.12291747367643
  C   3.56043257623290     -1.23783379340533      0.09536634048172
  C   3.20122927244785     -2.67593424687153      0.21719970261610
  O   2.12691509781001     -3.21550481056050      0.34203700478592
  N   4.42102948495059     -3.33200355341710      0.14683293747223
  C   4.50311607441271     -4.77723493622280      0.12973782964694
  C   4.83908595935493     -5.30572092039967     -1.19603031871962
  C   5.13409633896340     -5.72237776446489     -2.27842114809137
  C   5.48083383693005     -2.43557740481300     -0.04336490669053
  C   6.88680985689034     -2.92839186601205     -0.14891587774572
  C   7.36258772484198     -3.50648945020802      1.11370538149230
  N   7.70775944813861     -3.96705067216018      2.10422426259816
  C   5.01302838811623     -1.16964417724425     -0.06916085160543
  C   5.68591069626622      0.09341556775765     -0.19346922983371
  C   5.02662546094045      1.25696663393489     -0.18612625040283
  S   3.30027089746342      1.46515297981053     -0.02774918709256
  H   3.52008404612746     -5.13743953554981      0.43660453226075
  H   5.23453567107700     -5.12151733548581      0.86428151933959
  H   5.37493302475137     -6.10038315123848     -3.24358713787051
  H   7.54296762028915     -2.10244198738955     -0.42117953999022
  H   6.97489888688039     -3.69305369245852     -0.92622534197299
  H   6.76450315015325      0.11800639679068     -0.29366888652720
  H   5.54195235543790      2.20348810224549     -0.27925509401866
