20
Coordinates from ORCA-job 10591optt
  Br  0.90987832821018      0.16110919999861      0.03818335999809
  C   2.77563166913999      0.04699079030926      0.01532124237650
  C   3.49812565852224     -1.14751194454043      0.00758223013005
  C   3.04747561802629     -2.56856979502043      0.00717244177947
  O   1.92717496811121     -3.00082669914944     -0.00194358852406
  N   4.20729615915049     -3.30981237044374      0.03034245398784
  C   5.42271760656274     -2.53019429708648      0.00007027726118
  C   6.24680792179033     -2.81284314773751     -1.18707587118581
  N   6.88537930676458     -3.06532369148078     -2.10306046699800
  C   4.87849446658091     -1.11462601562125     -0.00246591308265
  N   5.64773611217833     -0.02808908567838     -0.00217757291490
  C   4.94821268156784      1.07021140113923      0.00152867165349
  C   3.54727039988156      1.18139071344236      0.00833718246173
  N   3.28127095315666      2.52972845820490      0.01292250753891
  C   4.46305540195709      3.24501913798912      0.00893158339094
  O   4.63381263970785      4.41720987074164      0.01115508248271
  O   5.48901836853001      2.31064364600477      0.00314477520665
  H   4.18840061710036     -4.31381184204745     -0.04332949820659
  H   6.04234282775167     -2.69362219325117      0.88673471495684
  H   2.37589829530962      2.97092786422720      0.01262638768761
