22
Coordinates from ORCA-job 10590optt
  Br  1.07752658654004     -0.11653623965807     -0.21456928604799
  C   2.92916806239421     -0.13554568667089     -0.00481562659147
  C   3.66305248290399     -1.26341856988619      0.06175868608724
  C   3.20698534209929     -2.70103713020256      0.00144663123788
  O   2.08432228333709     -3.11925920451122     -0.09612434425455
  N   4.34887472994893     -3.44619301615966      0.08538817793269
  C   5.58385612616122     -2.71080290811068      0.25856755665240
  C   6.60689145042877     -2.99043816696198     -0.83163134373163
  C   7.07095077088932     -4.41821039331529     -0.80365919910762
  O   6.65920880942945     -5.25228503440185     -0.03980958414034
  C   8.13188915810557     -4.82485439685972     -1.83119192811235
  O   8.57231034263858     -4.04712478936141     -2.62424235558260
  C   5.09477817160480     -1.27656758334644      0.22114313532256
  N   5.89418077546709     -0.28473601498951      0.30693286407792
  S   5.32368282497821      1.25961863041041      0.25891587325773
  C   3.55427530810105      1.20747154106315      0.08309351373479
  O   2.95975968142912      2.24904606405710      0.04148403278123
  H   4.30967182977302     -4.45084619102027      0.16338955219525
  H   6.02869651684774     -2.92400063517052      1.23495645935406
  H   7.47413105467419     -2.33299885366040     -0.72474658951081
  H   6.19380344784726     -2.78298455248642     -1.82387121973463
  H   8.43998424440100     -5.88329686875755     -1.77241500581975
