22
Coordinates from ORCA-job 10596optt
  Br  1.13397539130678      0.43961539025153     -0.11463561623280
  C   2.96952413324098      0.12784521152355     -0.00670066006952
  C   3.55726456728918     -1.11360535280045      0.02165767879077
  C   2.84065523162598     -2.37878839273444      0.04589867796213
  O   1.64137271591242     -2.51341921573650      0.07031417163582
  N   3.67835967123556     -3.50336160814398      0.06700873748420
  C   3.02924352253522     -4.79889871462014      0.12570226993479
  C   2.91383971476021     -5.43240326300257     -1.19616794331982
  N   2.83991830506619     -5.93028013474670     -2.22428886677242
  C   5.06551890581244     -3.47548087118280     -0.10467815709409
  N   5.83286707681200     -4.43455725899509     -0.34175891438554
  O   5.66103339117874     -2.25887303958400      0.05152840362596
  C   4.99318018008490     -1.08903906137965      0.07128828251021
  N   5.73475344147864     -0.04822744660627      0.12877523646142
  C   5.14316653414364      1.19708700561267      0.14026364304580
  N   5.71194417838887      2.32123642539349      0.22267562891682
  N   3.72660490521133      1.21938176960597      0.03604681559046
  H   2.03070702222802     -4.64993736963924      0.53049361548589
  H   3.59085119967731     -5.45562573142841      0.79042370201104
  H   5.36836126433358     -5.32208118967348     -0.48893732133510
  H   6.71809387639470      2.19485227444527      0.28419402821277
  H   3.30676477128326      2.13956057344128      0.01589658754119
