22
Coordinates from ORCA-job 10609optt
  Br  1.01751248386094      0.11435479138225      0.07918694217257
  C   2.87267363095168     -0.06811126677284     -0.02574997389292
  C   3.49258400921002     -1.29283009192380     -0.03299758880104
  C   2.81708374398366     -2.62915514811613      0.00717420297486
  O   1.61725990689448     -2.74781000707738      0.02124181018493
  N   3.66271857660981     -3.73636170489400      0.01713321315040
  C   4.94131304099201     -3.55520160767320     -0.02869835381694
  C   5.75837221172779     -4.83142114183100     -0.01388357464812
  O   6.95146935079494     -4.84923488982015     -0.02829787517323
  N   5.65022685066401     -2.39410848484637     -0.08960657342118
  C   4.92370021619275     -1.33192089480171     -0.09105202123332
  O   5.61098798348326     -0.16822489044751     -0.15487889755209
  C   4.98071984626660      0.99850940566775     -0.16643898349633
  C   3.64065523008398      1.13914734051999     -0.11052551636591
  C   3.03040966261158      2.50443331128004     -0.08963585538339
  C   2.51960174481802      2.89679367507955      1.28508116553835
  O   2.76847144924475      2.28650198417864      2.28243856198161
  H   5.13603615514316     -5.74123349564255      0.01176253039733
  H   5.67048833686121      1.82951365870511     -0.22267413915957
  H   2.20823757821654      2.59131331078465     -0.80307993497449
  H   3.77056233256356      3.25671310567372     -0.37917575983060
  H   1.90691565882519      3.81633304057493      1.31067662134905
