20
Coordinates from ORCA-job 10618optt
  Br  0.95889170773488     -0.02100456479795      0.21704151229961
  C   2.80188088058591      0.11318444421900      0.10409546736761
  C   3.51451045991019      1.25452241029126     -0.05868574523803
  C   2.93097657835678      2.64080947557756     -0.22828331309809
  O   1.75175739029075      2.80475920488296     -0.37093780724921
  N   3.81935494000411      3.71830864350468     -0.22013243108261
  C   5.08057395596204      3.50191212858616     -0.19630726032630
  N   5.68875415134888      2.29231352531848     -0.16099496201101
  C   4.95356242807601      1.12356592112377     -0.07544211211590
  N   5.61296951812549      0.02464520392552     -0.02030729860263
  N   4.88265619158063     -1.10045710938876      0.06752784184405
  C   5.62112823960998     -2.32488608004855      0.08378059184843
  O   6.74987183915265     -2.38760860224144      0.45096133046155
  C   4.91964369196805     -3.52526719042761     -0.55461517996602
  O   4.54839053236254     -3.45648713270588     -1.68585211260310
  C   3.50463394738673     -1.17887960432675      0.25613325238532
  O   2.98223449766442     -2.23210303366158      0.53280677112331
  H   5.76082666564146      4.34881220681007     -0.20713718218270
  H   6.69455242830514      2.21050907454182     -0.15549382898998
  H   4.91282995593328     -4.44564892118274      0.04684246613569
