22
Coordinates from ORCA-job 10611optt
  Br  1.33489395583931     -1.41611549660281     -0.39602003520456
  C   3.19286968435214     -1.31781935361690     -0.12679058809132
  C   3.71026173157131     -1.61899743267443      1.10850463301905
  C   5.11881094061169     -1.39675369935946      1.31323014752464
  O   5.75652707186968     -1.59427732827421      2.32730013043245
  N   5.80080362575112     -1.04483246821851      0.12278825082247
  C   5.21003330847483     -1.24460635157871     -1.07687540632351
  N   3.92650005968434     -1.12875462709964     -1.23293501190932
  N   5.98702749602115     -1.81619152318992     -2.08403813415743
  C   5.95949882747261     -3.09646915453738     -1.98771820799195
  N   5.21906169371200     -3.77499368190365     -1.03634450923595
  C   5.63377753290642     -3.99092436270886      0.14433082940630
  N   4.84352998799353     -4.34797497737249      1.20535563036051
  C   3.43610395436156     -4.05037182373399      1.26497249412053
  N   2.53013462259066     -4.70587808799229      0.70617632829728
  C   3.08506034237102     -2.70601410365909      1.94695267937521
  O   2.42156869395311     -2.61654455514838      2.92859530955817
  H   6.81059579362591     -1.09749927783417      0.18199732693212
  H   6.47385583141127     -3.68114530157657     -2.74679267441169
  H   6.68173370056079     -3.87327372792222      0.43406119241206
  H   5.32050726198317     -4.24419334740716      2.09263350809450
  H   2.90584388288233     -5.51736931758913      0.21261610697044
