21
Coordinates from ORCA-job 10614optt
  Br  1.16068687094477      0.07565414251144     -0.14850205385197
  C   3.02446631520660      0.05159142351391     -0.00821790752519
  C   3.78658907582392      1.14493803871809     -0.12237937887201
  C   3.38259013693423      2.57816993012598     -0.32748520240443
  O   2.28982928642536      3.04994049944851     -0.50357327026284
  N   4.57796245643279      3.26822144385445     -0.27336848651691
  C   5.66518753102954      2.39514258141348     -0.11920689874840
  N   6.95461041573272      2.91011570880060     -0.09529898551706
  C   7.35761811784189      4.11881559343096      0.43860957594942
  C   8.70219379540098      4.17471447246828      0.22935623208848
  N   9.13895610096833      3.04439890557224     -0.41439362340639
  C   8.07995097465693      2.31068552534990     -0.59612169267744
  C   5.24062717581344      1.12482206153801     -0.01201974546483
  S   6.09081408874873     -0.37749754738291      0.26172451693114
  N   4.87690391113695     -1.49107423656691      0.38567076895601
  C   3.63157001901851     -1.25793550081716      0.25685756718847
  H   4.65675538265706      4.23286664916494     -0.55352409492180
  H   6.66706649486352      4.78132220632623      0.93065715538161
  H   9.38064168115605      4.96286583449182      0.50938269149662
  H   8.03456746046689      1.35828158177307     -1.10189535307335
  H   2.96041270874074     -2.10603931373496      0.35572818525087
