23
Coordinates from ORCA-job 10613optt
  Br  1.61432438950483     -1.39703004024199      0.25983391186059
  C   3.43110401343096     -1.08119270075617     -0.06297730652975
  C   4.38634299027960     -1.10433086705615      0.87396396735499
  C   5.75696002228873     -0.71174534350549      0.45286792947489
  O   6.57450961427189     -0.25099936679877      1.20099893340125
  N   6.04331076236172     -1.11553049895157     -0.86002654085311
  C   5.08029850215358     -1.35971659656235     -1.64873467106011
  N   3.78310425057970     -0.99747849365344     -1.39527020736260
  N   5.21526151037004     -2.34188825093768     -2.67283816803041
  C   5.23407264188639     -3.61542309774230     -2.05092247710172
  O   5.85976737701935     -4.55052743253126     -2.43913823043207
  O   4.43529758353034     -3.58726040774502     -0.96382081714281
  C   4.71704901957259     -4.45528309804793      0.14363369627627
  C   5.38731948223051     -3.72339275167273      1.30372882405323
  O   4.50222924241679     -3.07558172041437      2.22683280958611
  C   4.13095464204334     -1.76852343942145      2.18641765742713
  O   3.56443162489196     -1.28518950271072      3.11165631803712
  H   3.08737444887183     -1.26352511737018     -2.07786711265974
  H   6.02635971615571     -2.23418741463772     -3.27001824205501
  H   5.37137050008894     -5.25582276939278     -0.20173489060613
  H   3.76427234068068     -4.87510557284502      0.46231781023538
  H   5.88066028680368     -4.47976115308268      1.91372024607301
  H   6.15962503856677     -3.04650436392220      0.93937656005352
