22
Coordinates from ORCA-job 10626optt
  Br  1.16822547108507      0.37927110627539      0.10168184477266
  C   3.00282557045457      0.06767665320234      0.01977202345964
  C   3.61345586281377     -1.12855900619166     -0.04443121504475
  C   2.90190380287014     -2.43834774380570     -0.06978198178684
  O   1.70137886263021     -2.55029504797751     -0.06823882674472
  N   3.72128602325795     -3.53878683602115     -0.09468075648332
  C   5.11916333727214     -3.58222736186638     -0.11114160396119
  N   5.78015045889594     -4.66330437908895     -0.09924330140336
  C   5.09240443205496     -5.92672811379731     -0.04966871983074
  C   6.08852968460277     -7.06548707835756      0.06701069963112
  O   5.75452897510242     -8.20776298938556      0.19110340305224
  C   5.77853635529751     -2.27798499893652     -0.13849430507101
  Br  7.64382287766017     -2.23273455461981     -0.21765343538653
  C   5.06296954814750     -1.13817266346326     -0.09491567087720
  O   5.74139447937921      0.04441653239238     -0.10035787773135
  N   5.10584138948680      1.25419688554481     -0.03016295533866
  C   3.83585089590372      1.26020692296860      0.02867717446450
  H   3.21915627530566     -4.41596332126591     -0.10850947680090
  H   4.49811442993488     -6.11574860837303     -0.95472926292690
  H   4.40862995266920     -6.01245881737376      0.80617891545938
  H   7.14955931960729     -6.75813299854324      0.02872700915414
  H   3.38227199556803      2.24092641868382      0.08685831939377
