24
Coordinates from ORCA-job 10629optt
  Br  1.03608608223205     -0.05762165793612      0.11701427452188
  C   2.91317983903812      0.01438729094221      0.04109570186534
  C   3.62097567471347      1.20997426666931      0.02506018528388
  C   3.16460087490917      2.62571627356423      0.02757591595778
  O   2.04885034333113      3.06273845959401      0.04290908133685
  N   4.33832001531568      3.40789160898490      0.00459420686065
  C   4.41942233364511      4.81781626078043     -0.00264832622996
  N   3.46859221739084      5.63695722576035      0.00427339528576
  C   5.49174538362940      2.60320089874481     -0.01319625779097
  O   6.61735418830420      3.00789318458389     -0.03452575502867
  C   5.00951122270866      1.19383440428963     -0.00097311103339
  C   5.76973570298016      0.04289357893834     -0.01656146577200
  C   5.03540598554422     -1.13554506234491     -0.01218031789115
  C   3.63827206451162     -1.16049221780951      0.01335700210691
  C   3.19420673381046     -2.59289839360929      0.05335047303907
  C   4.52120794360785     -3.33397431793987     -0.18957513940496
  O   5.57901454144810     -2.36455937167770     -0.01805239317163
  H   5.45663803700082      5.14332804018865     -0.01561353448272
  H   2.56171061693989      5.17172050283665      0.01601757349227
  H   6.85020973662787      0.06149928241559     -0.03548561320250
  H   2.44787975364186     -2.81596077372079     -0.70824352945948
  H   2.75552304217978     -2.83085306937781      1.02447811390484
  H   4.59136152926676     -3.71717239343571     -1.20771456388419
  H   4.70319613722272     -4.14277402044130      0.51304408369636
