22
Coordinates from ORCA-job 10638optt
  Br  1.21273358112825      0.49537261715666      0.10553164064606
  C   3.00966548995110      0.05523795771028      0.09053815594327
  C   3.54324138741647     -1.17992389118078      0.04262590071724
  C   2.75787933213183     -2.43601574119021      0.03518082669707
  O   1.55415531234321     -2.49989783718914      0.05344249152301
  N   3.53407850941671     -3.57671946447659      0.00797708647795
  C   4.92034827494174     -3.68149905076167     -0.01714711810771
  O   5.44418501747434     -4.77138118543106     -0.02806994255762
  C   5.67101094005519     -2.42003053046723     -0.03668104666106
  C   7.16106343155445     -2.47680594928734     -0.04745127057883
  C   7.81344461907341     -1.91504955555351      1.19829952005165
  O   7.23210879698079     -1.38487954987027      2.10044677878244
  C   4.98402057524810     -1.27066924828634     -0.00452164375884
  O   5.69039362287122     -0.10314665062810     -0.06670332862229
  C   5.13052199575207      1.09624016134182      0.21506207666635
  N   5.75744305280190      2.13461820087720      0.47599767781006
  O   3.76532579166522      1.16312141040051      0.13997209865574
  H   3.02874689045159     -4.45395381081137      0.01370323782148
  H   7.58260544378581     -1.92140021363556     -0.89282084387906
  H   7.48411942930869     -3.51393046874408     -0.16383149798324
  H   8.91479635493564     -2.01816486796435      1.21827977809588
  H   6.75811215071213      1.96187766799115      0.50316942226043
