22
Coordinates from ORCA-job 10631optt
  Br  1.16917862602757      0.42370933344482     -0.31496042487674
  C   2.97854488565359      0.05246484217120     -0.15812738323045
  C   3.54554218718067     -1.16455039612686     -0.10324011977318
  C   2.81474291009789     -2.44928016859259     -0.17307569097561
  O   1.61583329096923     -2.56760967177934     -0.23872577829843
  N   3.64977284202229     -3.53830053689543     -0.15508685313305
  C   5.05284954737834     -3.54553131397386     -0.07456928775181
  N   5.75488142487131     -4.59823538760243     -0.08102045935373
  N   5.68537038842193     -2.31152964853527      0.02454396651860
  C   4.99079767489476     -1.24099820919000      0.01280152277315
  N   5.66567745641853     -0.03112028992636      0.13416724935385
  C   7.11640909453213     -0.05248616702910      0.11623196218507
  C   7.61900398610319     -0.20535422961711     -1.30658371191505
  O   6.89000049957761     -0.20784493661829     -2.25314309139557
  C   5.06724343984977      1.19489323488476     -0.00816012437740
  O   5.63192392967762      2.23990808080162     -0.02211831615664
  O   3.69160844725687      1.18449169940219     -0.10905440271722
  H   3.17307478402498     -4.42766313045195     -0.20983757947300
  H   5.18523842145925     -5.43706223142899     -0.16281238400363
  H   7.47151618293025     -0.88908778024755      0.71565082523312
  H   7.48949501445673      0.88370092080297      0.52999171573521
  H   8.71329496619541     -0.30651401349241     -1.41087163436747
