21
Coordinates from ORCA-job 10632optt
  Br  1.05581641723780     -0.32747570558166     -0.07616323617980
  C   2.90447672348699     -0.11226171144994     -0.07664127412064
  C   3.54810287207652      1.11372142489388     -0.07601108626389
  C   2.86327157410850      2.43697910948526     -0.07521836196191
  O   1.67457347224683      2.57836919806931     -0.07511882668680
  N   3.70579406256612      3.57526356109867     -0.07458352646245
  C   4.95565004183891      3.43225945797504     -0.07473905159332
  O   5.65577245701231      2.28017796457548     -0.07548178080737
  C   4.96750248629634      1.10215655278015     -0.07618425573687
  C   5.72924966847347     -0.04012107180507     -0.07706220428939
  C   7.19425633175700     -0.00451944681041     -0.07700069268597
  O   7.89024222789135     -0.99070953734374     -0.07786695804809
  N   5.05260927495641     -1.24176865858900     -0.07782441787453
  C   5.49620760868318     -2.52824955375154     -0.07890995390911
  C   4.35173428823764     -3.30579404706798     -0.07938728015850
  N   3.23590674054916     -2.55865298174276     -0.07835467306089
  C   3.65433801811016     -1.30472226779483     -0.07758813375961
  H   5.63182409486285      4.28032968733892     -0.07424256084235
  H   7.62990639618117      1.00338214687158     -0.07600803677995
  H   6.54083114981312     -2.77112075913969     -0.07932936967147
  H   4.30893409361414     -4.38324336201169     -0.08028431910709
