22
Coordinates from ORCA-job 10644optt
  Br  2.96460009256029     -1.73878230232235     -1.38191668303032
  C   3.42177250057902     -0.33470960959797     -0.23182916739750
  C   4.12573575331801      0.76493734733459     -0.53931130304952
  C   4.31352779704438      1.67983135353263      0.58079196050835
  O   3.32469753956877      1.61671713645724      1.52471576384617
  N   2.90693591763023      0.29948472658579      1.91811679229009
  N   2.98986018467102     -0.58121508809521      1.08742541182237
  C   5.33221521629349      2.53559847038827      0.75373583039959
  C   5.60882606503057      3.40914607224816      1.94760473078383
  N   4.91328580696459      3.65756361456531      2.96888295415400
  N   6.89670759908123      3.99833438438607      1.76858959002641
  C   7.35303466831758      3.60933916352966      0.64082399410451
  C   6.46986011063620      2.72330157735907     -0.11806185387755
  C   6.73269987793349      2.24415197483973     -1.34422289625641
  N   5.92037598317535      1.46806298574034     -2.12457576553912
  C   4.59476879151475      1.08452914616573     -1.92614653483670
  N   3.87411136339142      0.98386793565958     -2.96013921368671
  H   4.02456510259942      3.16449694187946      2.93049744695331
  H   8.32328502873869      3.93473633966492      0.27821184331032
  H   7.67665340418570      2.48917843420027     -1.81498864588370
  H   6.16266299281661      1.41090570845424     -3.10430235586363
  H   2.94981820394890      0.61552368702436     -2.75890189877777
