20
Coordinates from ORCA-job 10654optt
  Br  1.32842994638899     -0.45974112395196      0.60124358371806
  C   3.08089578159009      0.03394364046595      0.16141876497729
  C   3.54558169057418      1.29549389171605     -0.01020793752837
  C   5.00604088233552      1.38410761080649     -0.10439936122188
  O   5.69849275765475      0.22933241370330     -0.19773026756221
  N   5.10215858545425     -1.01877130992855     -0.13644073300088
  N   3.89262186236665     -1.08534947827142      0.05739431379314
  N   5.72051786635273      2.43488575129309     -0.08747672676871
  C   5.10234985636899      3.67633918883975      0.01713968553429
  O   5.71708490267245      4.70189467574125      0.08131909612032
  C   3.59933807644512      3.68712565207543      0.01707802692299
  C   2.84111868462933      2.55725399920497     -0.03859336759009
  C   1.41119553139779      2.74513444000081     -0.20015914035950
  C   0.89516935835400      3.97854974887316     -0.17743546714781
  C   1.72961426181706      5.15554614841942      0.03121008178642
  N   1.40049144762231      6.35751548666115      0.18592817138833
  O   3.09434318812642      4.90761765633971      0.03520875624263
  H   0.76771326582862      1.89910421141557     -0.37643026062041
  H   -0.16343183966327      4.14856940861106     -0.31629085564968
  H   0.39027389368399      6.46044798798473      0.15822363696607
