19
Coordinates from ORCA-job 10656optt
  Br  1.31489591298481     -0.74789572658347      0.04596071656034
  C   3.12911989238533     -0.37819405046265      0.13664004206549
  C   3.66578329053370      0.86903886725234      0.10701950755255
  C   3.00562743683284      2.18923791089435     -0.01062671216021
  O   1.83763716221272      2.49465431966021     -0.06712335651989
  N   4.08792864962546      3.04402019510681     -0.04947502700217
  N   5.32642259645359      2.45682085699230      0.03121387423157
  C   5.10974271582661      1.19097572469018      0.12754078929062
  C   5.98621078275821      0.04650497322258      0.20331584467375
  C   5.30767642181689     -1.08806230967614      0.29079236340768
  N   4.01291677365918     -1.43612380116048      0.25885619456346
  C   4.04464514990257     -2.88547656741088     -0.03580141332144
  O   3.09790784776429     -3.56605137518811     -0.17890100098413
  N   5.44748934195497     -3.29524673970751     -0.15652541193439
  C   6.13081658345037     -2.23719302580353      0.04581618974332
  N   7.47526219972427     -1.79773643479538     -0.06444999713587
  C   7.39189425317501     -0.50719273231047      0.00611779015787
  H   4.02298589912798      4.04489250857712     -0.12622303010816
  H   8.28103708981114      0.10502740670271     -0.07714736308038
