20
Coordinates from ORCA-job 10655optt
  Br  1.46725367823238      1.95148696826870     -0.27579217196766
  C   3.00832819719723      0.95039604062727      0.04233388546654
  C   4.26923873813108      1.41335784398573     -0.04164092983761
  C   5.32423584439003      0.43209199309536      0.21262859522738
  O   4.91166539387608     -0.85040413362444      0.40432998388920
  N   3.58175741007333     -1.21877518274111      0.51175482768074
  N   2.70691764177187     -0.37594633752219      0.36046803146310
  N   6.57895942868381      0.57284210388589      0.29775951330222
  C   7.28151869619389      1.73512208668283      0.06894304270868
  O   8.39112637287437      1.71976383282880      0.82304172797553
  C   9.35047371606925      2.68778776593364      0.63121900454278
  N   10.19091221252667      2.84808067997315      1.53857872077295
  N   7.06183676687817      2.67994324781300     -0.75436066566475
  C   5.85138544717810      2.81162208048572     -1.40579533253107
  O   5.71401276370382      2.98724089765898     -2.58072814301533
  C   4.66113124006669      2.78896871195154     -0.45529112365400
  N   4.14265973158270      3.87900261464644     -0.09835609815646
  H   9.26880177377319      3.19585034021310     -0.32623523148815
  H   10.86931747115314      3.55467501387916      1.26715017633111
  H   3.37346747564412      3.75489343195839      0.55999218695480
