21
Coordinates from ORCA-job 10669optt
  Br  1.08060727520160     -0.20867323079978     -0.18709225370030
  C   2.92295431734070     -0.05439459505842      0.05264996386262
  C   3.77144060460340     -1.06372538901807     -0.14991894101023
  C   3.55798623399132     -2.46561519297249     -0.61997223192141
  O   2.54059870258005     -3.04969822985841     -0.89846256715533
  N   4.84258050668356     -2.94738488126441     -0.66331605645125
  N   5.81942909084833     -2.04962598337860     -0.27406202693632
  C   5.20051953430587     -0.96796310741659      0.02262939086914
  N   5.84615371708253      0.17649297605094      0.47355074693731
  C   7.28343567269810      0.21118159936647      0.36308933336601
  N   8.08317709752769     -0.09457881415433      1.27369185424312
  N   7.75632954220805      0.61206301551667     -0.88061512633113
  C   7.04289445882629      0.96238384500416     -2.00301669036670
  O   5.84571459212153      0.98271457837735     -2.10846939547911
  C   5.23153056170504      1.39935189021793      0.63163539468368
  O   5.83795886318657      2.40511489298153      0.86252535079527
  S   3.44029232141010      1.52542467906454      0.55054592290869
  H   5.11133711175909     -3.87795920125864     -0.93043108827799
  H   7.59604614456983     -0.36644868190574      2.12275006478511
  H   8.76412480399560      0.63961099289590     -0.93697678672575
  H   7.71588884735468      1.23172883761000     -2.82973485809541
