24
Coordinates from ORCA-job 10672optt
  Br  1.09896629620972      0.39960486304724     -0.49961462067490
  C   2.93645357933563      0.22691488022162     -0.23043839570959
  C   3.75619502209196      1.28555339022786     -0.12271077838246
  C   3.62673398608357      2.76149815901929     -0.17721408609665
  O   2.65351722709961      3.46005286320597     -0.33794522643884
  N   4.93166669143238      3.15779053661679      0.00247506425453
  N   5.85969279072766      2.13507985659536      0.16705312511763
  C   5.16101872391199      1.06967134540762      0.09074811094204
  O   5.68192489072748     -0.17646834169890      0.20517530962735
  C   4.83909318340973     -1.22644773849318      0.07458316070126
  C   5.56419102216606     -2.52814154697616      0.19904059941203
  C   6.57373417282993     -2.74564289696763     -0.88602429613324
  C   6.64039336747769     -3.70829282075587     -1.86575322711925
  C   7.82776254700275     -3.41837412456268     -2.56738050332769
  N   8.44275528307018     -2.36379827005502     -2.06364558812634
  N   7.67163539779891     -1.97426661280388     -1.04672833134989
  C   3.51364977709384     -1.08744458715771     -0.13372095708803
  H   5.25305823673023      4.10986388662929      0.02428618455983
  H   4.84025996717572     -3.33917729344618      0.16983662703385
  H   6.05260917089715     -2.55137548004007      1.17819450123019
  H   5.93528355801356     -4.50267322438328     -2.04076828096132
  H   8.25617156714760     -3.93307724251994     -3.41182664709922
  H   7.91658273720824     -1.14800802550392     -0.52519920645454
  H   2.89465080435836     -1.96584157560662     -0.22742253791672
