22
Coordinates from ORCA-job 10673optt
  Br  1.03118166663512      0.20453613448342     -0.27699222652787
  C   2.89045587768940      0.17955798868049     -0.06933067554314
  C   3.60595761297444     -0.95978609730817     -0.12508889836800
  C   3.38399208156559     -2.40830697465968     -0.32793626266614
  O   2.37608231148838     -3.04407024651814     -0.53249314580715
  N   4.66992350319117     -2.89300346726529     -0.22626699158676
  N   5.66444552044234     -1.94743049982805     -0.00206006301909
  C   5.02259066922040     -0.84692527035317      0.05250936065859
  O   5.60042408286098      0.36445605805115      0.25756075456144
  C   4.77869721264240      1.42645411671573      0.28601980628970
  N   5.48580340337681      2.56989837003864      0.50438692515623
  C   4.85961017765693      3.67644305377277      0.30460304951247
  N   5.44014775810661      4.84814502807284      0.57142942080220
  C   4.83790012003063      6.12714555121506      0.28256963211091
  C   5.49416569466421      6.81527937604681     -0.84069490406746
  N   6.02299127459327      7.35103860050945     -1.70301316615180
  N   3.48731664309529      1.38329709274432      0.14626521649864
  H   4.93296689044959     -3.85766529957809     -0.32706690490242
  H   3.83897590409435      3.71952115695121     -0.07944720255772
  H   6.39554613626922      4.81844777656205      0.90191475673177
  H   4.87987468442521      6.77685644292219      1.15772775530284
  H   3.78695077452761      5.97411110874444      0.03740376357277
