19
Coordinates from ORCA-job 10679optt
  Br  0.96424231995792     -0.09965154674303     -0.26306611448125
  C   2.82192967276913     -0.11908931875810     -0.13955428108926
  C   3.54606001350862     -1.24880406917176      0.06017905140392
  C   2.90211104210911     -2.56610173980630      0.35281889906625
  O   1.87668720017628     -2.68436045357986      0.95391128614546
  N   3.58113951393907     -3.73021841836419     -0.10522303689821
  N   4.81460150489436     -3.69552992211233     -0.26697083435649
  N   5.51099418248574     -2.57170734741857     -0.04296558900065
  C   4.99529076129048     -1.29985559091993      0.04715512314254
  C   5.79219655812730     -0.18303391355018      0.10248448950323
  S   5.13225037668543      1.42682145133577      0.02035224489050
  C   3.41551385649112      1.22892926293558     -0.31443471948949
  O   2.78259216315742      2.21094444752088     -0.58776468261188
  C   7.25772943935998     -0.07418362715902      0.28239115968889
  O   7.77283631599606      1.01685571056805      0.38961335506019
  C   8.30253137483317     -1.20258469450523      0.35434413793679
  O   8.19591975345597     -2.33011686882816     -0.03408115567386
  H   6.51043642437533     -2.70012880141868     -0.18682863923565
  H   9.24893752638744     -0.80318456002492      0.75063930599896
