23
Coordinates from ORCA-job 10684optt
  Br  0.84098850654650      0.92996089879069     -0.94926465134694
  C   2.64871013121687      0.47164717494253     -0.82208696784644
  C   3.57488972012848      1.25842101968367     -0.23809971874373
  C   3.39057854672536      2.49753780309108      0.56480822966147
  O   2.41275152301970      3.12139071573428      0.80543088150296
  O   4.61616872903511      2.82230861449019      1.10489779361211
  C   5.65668977130550      2.04126915890276      0.53246463635172
  C   6.67291878436287      1.50071514352012      1.52905241471814
  C   7.63553811822328      0.58271373386657      0.76589450367404
  C   6.94413672222533     -0.58972353044527      0.05018268408317
  C   5.54112304894875     -0.28629204036376     -0.39723587550954
  C   4.94358333802953      0.88622726614489     -0.13395967590368
  C   4.79207737409811     -1.36343201582647     -1.03781959338108
  O   5.22893159489458     -2.44524877936477     -1.31605274385400
  S   3.05177893413773     -1.06397393132108     -1.48256036169976
  C   6.33215026836165      2.86782198781768     -0.49602050469740
  N   6.87396320690022      3.48292932268257     -1.29549222330694
  H   6.11797768926293      0.95635443246327      2.29587018958036
  H   7.20787650814760      2.32186553454842      2.00423738173084
  H   8.37897655679377      0.19067582594080      1.45842516761050
  H   8.17990644626968      1.18564125138793      0.03653130679034
  H   6.87766989821016     -1.46059495922717      0.70934327388664
  H   7.53761458315618     -0.92221462745892     -0.80354614691280
