20
Coordinates from ORCA-job 10682optt
  Br  1.02373088357315     -0.05980015312711     -0.12759367253070
  C   2.87086282260890     -0.05677139622992      0.03827900982891
  C   3.63645077267653     -1.14060096336038      0.17728144514752
  C   3.32848499211380     -2.57658214134795      0.22337274420275
  O   2.31485404384217     -3.19170055653917      0.19372650150641
  O   4.57387679843119     -3.20698847652407      0.31406489136694
  C   5.56639655304772     -2.25808873812486      0.34140060915809
  C   5.07778854747285     -1.01758970363948      0.28300557689783
  C   5.62067767422135      0.30720031351551      0.29101383022283
  S   7.30427687410833      0.66608469237265      0.60557920713504
  C   8.32302659361622     -0.68929068848197      0.04825732938464
  O   9.44567238918056     -0.36296950699058     -0.20691072787362
  C   8.03725983400264     -2.21834059346110      0.05827361530229
  N   8.99943832508506     -2.99579125016345     -0.18042517908190
  N   6.82588970883169     -2.78351131937520      0.41576592290623
  C   4.77320147827086      1.32958669716083      0.13470720517909
  O   3.40329444486329      1.18194426673512     -0.00223208919895
  H   9.84639502952431     -2.46490209464840     -0.37448392950482
  H   6.86759549170131     -3.79480272147138      0.42933161133474
  H   5.04982674282800      2.37191433370092      0.11758609861667
