25
Coordinates from ORCA-job 10698optt
  Br  1.07164316390144     -0.06855109441677     -0.03793683626803
  C   2.93406558135909     -0.08021674940050      0.03514885076532
  C   3.67492657837869     -1.20828586859665      0.05512175117516
  C   3.23235970294060     -2.63733117057462      0.03159842297107
  O   2.13987904169496     -3.09889681428957     -0.00093668171286
  O   4.35137189185915     -3.41280275044121      0.05711027924381
  C   5.55526555499699     -2.65416843204110      0.09684910736232
  C   5.09654620410027     -1.22474617202047      0.09514059492032
  C   5.72699288838947     -0.03200276681676      0.09609937295523
  N   7.07316546608683      0.30360161547958      0.10991481152856
  C   7.26874386505380      1.74359505574278     -0.05336901066604
  C   5.85551838043906      2.30901139274784      0.12697948130735
  N   5.00258469870945      1.12957369757533      0.06837544426344
  C   3.60383257530866      1.22746715516970      0.08534147993610
  N   2.95940058924202      2.32421182743581      0.13510016074831
  C   8.13747143161255     -0.55287187046528      0.14462722137103
  O   9.27580559751973     -0.17158781109041      0.06979439407081
  H   6.15520422842584     -2.91888060751678     -0.77746233463772
  H   6.10284233743986     -2.93613871051708      0.99942205976448
  H   7.67496678806651      1.94779348588923     -1.04416826720782
  H   7.97628673837489      2.10861807367298      0.68709413113361
  H   5.58690010232453      3.00502762184036     -0.66770797385926
  H   5.72596708789101      2.81097375542292      1.08877299672569
  H   3.55724952609941      3.14240218602837      0.18392507484447
  H   7.85700997978514     -1.60879504881771      0.25416546926465
