20
Coordinates from ORCA-job 10709optt
  Br  1.07902053859199     -0.14190588016985     -0.01917205917239
  C   2.92393470498018      0.10702739596201      0.01406199006008
  C   3.52650910284474      1.29607623303300     -0.06946012052116
  C   3.01370693830143      2.68117174498214     -0.17825607229579
  O   1.89787069320354      3.09114273456590     -0.24201822504869
  O   4.11863496148801      3.48011937938904     -0.19131621604235
  C   5.27439878019245      2.70735406478114     -0.11065962354452
  C   4.96865343831821      1.40210864057407     -0.03601048637439
  N   5.69423052075173      0.21440012103324      0.06028311320986
  N   5.07304612376656     -0.97586672627895      0.15905517145245
  C   3.79152205643083     -1.04988839886969      0.13979223802635
  C   7.08224417160530      0.15503702901269      0.06203766068068
  C   7.86017293241346     -0.95516145426031      0.26954296466705
  C   9.22043861765660     -0.60174360376935      0.15517847410979
  N   9.49397902627635      0.65302886626342     -0.11157349512181
  S   8.10206224013281      1.50067323979586     -0.24689496174864
  H   6.19095860535804      3.26522523317279     -0.11357089626789
  H   3.36882387376976     -2.04200192602463      0.22259499643606
  H   7.47441414501419     -1.93826609189563      0.47963466780519
  H   10.04337852890374     -1.29453060129688      0.27675087969011
