23
Coordinates from ORCA-job 10702optt
  Br  1.05118725610645      0.00807698928294      0.21375975404666
  C   2.90472697427300      0.09397991943086      0.09621655563453
  C   3.60265444253695      1.24810049099945      0.10821299188281
  C   3.13367731921457      2.66799551565141      0.18807690384327
  O   2.03063346390208      3.10191383457399      0.25990366349228
  O   4.23566282826544      3.46166249505988      0.16228458634263
  C   5.45751420267591      2.72380275323191      0.07673162631536
  C   5.02037112232091      1.29221774740010      0.04275569881430
  C   5.72652174391940      0.14931098508506     -0.04959826864823
  N   5.02426242190135     -1.03821196613129     -0.06261805228576
  C   3.63047479319503     -1.18651986787929      0.00859081876498
  N   3.02470466963605     -2.30366374197862      0.00866049228028
  N   7.11116682211612      0.17531900618346     -0.12817071132841
  C   7.76462709321675     -0.80785722612487     -0.55509645653080
  O   9.12112170398172     -0.69698765188188     -0.58510273673021
  C   9.84047851425325     -1.78568819681041     -0.97468753285035
  O   9.38230697444903     -2.84077337778333     -1.26855079906446
  H   6.07010672014526      2.95923377241831      0.94768881967748
  H   5.98809246967235      3.03492977836981     -0.82306509560743
  H   5.54161265374411     -1.90154645737567     -0.00771561399923
  H   3.65614787239231     -3.09773186679738     -0.06371042372470
  H   7.38945877812065     -1.75383192650626     -0.94100746615668
  H   10.90248915996123     -1.52473100841820     -0.96655875416830
