20
Coordinates from ORCA-job 10707optt
  Br  0.84031354062309      0.42866528852359     -0.05494691858978
  C   2.69709088397915      0.29012885416812      0.04428975195165
  C   3.52973568113788      1.32790721335812      0.08509299273117
  C   3.23872894787840      2.78370669451735      0.07210363408625
  O   2.21078175432067      3.37883865101909      0.04231286238445
  O   4.46519972331199      3.41029990523013      0.10922184316789
  C   5.46327963186737      2.46152393245660      0.15360511564832
  C   4.97848346509463      1.21590063758665      0.14285150002792
  N   5.66903276793064      0.01548244246129      0.17375313310077
  C   5.02580821376267     -1.06210434015241      0.15376294683877
  O   5.60410687182273     -2.28145480051827      0.18839314564799
  C   6.94279607417795     -2.43665384214792      0.21545054251291
  C   8.03598268119967     -1.64002309399253      0.16532296535079
  C   9.08483821778614     -2.59725359780954      0.23255613032376
  N   8.64741653036805     -3.81744177877266      0.31457111514419
  O   7.27136455365849     -3.71873940203723      0.30401799260899
  S   3.27014318675125     -1.36363342950636      0.07799006064326
  H   6.47239482695471      2.83359619555178      0.19088413683510
  H   8.08361255091646     -0.57297528330463      0.09600324273602
  H   10.14988989645799     -2.42477024663114      0.22276380684958
