21
Coordinates from ORCA-job 10701optt
  Br  0.97386743934222     -0.05900679348469      0.53374438089988
  C   2.81714747081512     -0.05348008673158      0.24759185231846
  C   3.56219733647463     -1.18280109111462      0.27187080667856
  C   3.18727561390040     -2.58770919115492      0.53304005369694
  O   2.12757926396888     -3.06973847516601      0.77432098907428
  O   4.33318284454876     -3.32258169578316      0.45927081738202
  C   5.47126476620927     -2.52612571851617      0.14052620521835
  C   4.95811384878500     -1.11630313041641      0.03944623560131
  C   5.60680539605833      0.03626950368986     -0.20983759986195
  C   4.86844420739052      1.27920825136471     -0.23209637417877
  O   5.31208865109674      2.38239204117019     -0.41481953094573
  N   3.43918832635183      1.13921635512900     -0.00309250700590
  C   2.72854593187311      2.35009615837497      0.00919092078278
  C   2.09669418465789      3.06334540910533     -0.93967563462773
  N   1.59798412240063      4.17051129090261     -0.30012784996500
  N   1.89600136268697      4.14362808168330      0.91315648613342
  O   2.62787392699370      2.99329056951139      1.16529915202941
  H   5.89331546572172     -2.87568248897715     -0.80277327361066
  H   6.21480423017959     -2.63955564415237      0.92980275940509
  H   6.67091842347034      0.10853834556942     -0.38321182299510
  H   1.96270718707429      2.88148830899628     -1.98962606602967
