26
Coordinates from ORCA-job 10712optt
  Br  0.95988982717684      0.02738945911346     -0.64957951605794
  C   2.77787819760832      0.17635876296613     -0.04377154015475
  C   3.60206469237832     -1.02938603879179     -0.08940234630514
  C   3.24762857635894     -2.40854452473366     -0.51718276606944
  O   2.22951173641839     -2.85176809975708     -0.93773137826804
  O   4.36058858797338     -3.18467620780130     -0.35467397393129
  C   5.46208889687726     -2.42521371382272      0.11597637193307
  C   6.63252704253067     -2.50487274156021     -0.86269238416953
  C   7.21281138573750     -3.93437933397334     -0.93587119114901
  C   7.31583106540224     -4.20915318920877     -2.44416235088727
  N   6.22680538687878     -3.45501328920981     -3.05949087195849
  C   6.21132024891819     -2.19382553561992     -2.32618112989276
  C   4.90144002264634     -1.04501644114864      0.28406530857261
  N   5.72530683723130     -0.07460621775827      0.74351414226489
  C   5.65012549705556      1.12182587602288      0.97557790495760
  O   5.78519709594081      2.22793850841745      1.24605203766579
  O   3.18809450743981      1.22632075717249      0.34656350479758
  H   5.76517667209214     -2.81388119119448      1.09427151148479
  H   7.38250413652224     -1.79370842740835     -0.51291570261101
  H   6.51476377652010     -4.64363343763076     -0.48653916075770
  H   8.16533309053071     -4.02195050872671     -0.41454202682764
  H   7.24987054978246     -5.26591875543229     -2.69642427770166
  H   8.26240584488878     -3.82701806573434     -2.83600422120885
  H   5.35156498071479     -3.94266779990324     -2.89600894434033
  H   5.23288166566198     -1.71774883597318     -2.40417457515109
  H   6.94138967871406     -1.51785100830352     -2.77567242423440
