24
Coordinates from ORCA-job 10716optt
  Br  1.10843527991511      0.05980485854351      0.12619555038318
  C   2.98248763172818     -0.02814997666636     -0.04981134432117
  C   3.67030673185208     -1.23828257038498     -0.15214091410535
  C   2.98839962799831     -2.56611513940406     -0.29103513993416
  O   1.86640847027946     -2.71035094658792     -0.66725856693339
  O   3.73286193499933     -3.66003335931130     -0.01540905231144
  C   5.05211270338397     -3.52321918041933      0.50336731823024
  C   5.83257637153147     -2.47849248376748     -0.26296606268529
  C   5.06957791666514     -1.18852372167208     -0.20871916383630
  N   5.75892958646179     -0.05786725556038     -0.20614968832975
  C   5.08367466524878      1.08098582265820     -0.13318840101502
  C   3.69824713092319      1.16740417464532     -0.03944125049168
  C   2.99086725080479      2.49755806088282      0.07284592252309
  C   3.90240299178144      3.63729437222895      0.04005131403658
  N   4.63381499333142      4.51761053920022      0.01354154812882
  C   5.68213306461308     -4.90176123287016      0.43148385524651
  O   6.85959072625793     -5.06989379244100      0.54663783392676
  H   4.99220607400362     -3.24398267441410      1.56310677355590
  H   5.96051599874671     -2.80061771088418     -1.30087869294965
  H   6.82194934963430     -2.34353152389191      0.16898562305059
  H   5.67683203767803      1.98939785699626     -0.13673135233364
  H   2.41566714077541      2.53947394501423      1.00083836469725
  H   2.26683294488347      2.60852127485274     -0.73757565893676
  H   4.97216937650292     -5.73322933674701      0.27325118440467
