24
Coordinates from ORCA-job 10711optt
  Br  0.88260517974959     -0.28999695087784      0.22047456239986
  C   2.73690630750887     -0.12791639962037      0.07966640404724
  C   3.58971665605115     -1.15140325354276      0.11302654657101
  C   3.32101668652473     -2.60316436995952      0.25597934011213
  O   2.30323238956914     -3.21060570714769      0.35700129452271
  O   4.54976588824373     -3.21304627983943      0.25067268915573
  C   5.55744102303324     -2.26896285809694      0.10831063789393
  C   6.90281740105120     -2.78247603878910      0.09828868726083
  C   8.02614264843531     -2.06636254809588     -0.02954959848364
  C   9.24183533796233     -2.94824348991702     -0.05549692802102
  C   8.70566045241095     -4.30046166297258      0.45098294316985
  C   7.19154971857709     -4.26557089815207      0.18046099914522
  C   5.03312246370020     -1.02728298177738      0.01949956727003
  N   5.71118169479795      0.16797066246072     -0.12732600184308
  C   5.06082856479666      1.25057534452450     -0.18272885791197
  S   3.30450904799743      1.51759435994754     -0.09783007482571
  H   8.05630650988737     -0.99186476469649     -0.14604169177673
  H   10.05859942287323     -2.56115082095302      0.55566084402480
  H   9.62573912114005     -3.02041605789632     -1.07932133133746
  H   8.87281286551106     -4.36898793073775      1.52664148686959
  H   9.19726930010757     -5.15253767702570     -0.01463632227424
  H   6.60880396331161     -4.76281171084608      0.95519890492904
  H   6.92957464597908     -4.74463012792522     -0.76753300797600
  H   5.58956271078041      2.19275216193644     -0.29940109292210
