25
Coordinates from ORCA-job 10713optt
  Br  1.17028512650429     -0.01302387907579      0.17533715672994
  C   3.05555254361581      0.05810238933257      0.07602392406931
  C   3.76229973155783      1.26770856131024      0.13784146225848
  C   3.13170836749773      2.59162149172420      0.44841329385006
  O   2.12213078518499      2.72619720526943      1.06674074593174
  O   3.80992614091897      3.68821921718132      0.04479038245624
  C   5.02366904641635      3.54353459029377     -0.68322781565368
  C   5.90348269757363      2.51522191004336     -0.00089453853568
  C   6.33941958520491      2.89087029585492      1.42256209108807
  C   7.67974286037373      2.17216501014967      1.53114176502057
  O   8.21700764316929      2.17299612953482      0.19912679579288
  C   7.24710967287320      2.37451586425922     -0.71226430768951
  O   7.44654218540609      2.42391907638888     -1.88460687632551
  C   5.14786416773541      1.20441393754097     -0.02915564518458
  C   5.76019452161853     -0.02591794575776     -0.20625824237417
  C   4.95777332485644     -1.15374039516986     -0.22108198650316
  N   3.63591794886029     -1.10990431096965     -0.09584198846217
  H   5.48779728296385      4.52811628295784     -0.68431660990157
  H   4.82304042462649      3.24453460434657     -1.71411039434242
  H   5.63106035607259      2.58262630425310      2.18900213222894
  H   6.47605551181086      3.97142392100063      1.48889563189115
  H   7.56414389373109      1.13674139554074      1.85652224943703
  H   8.39516212569856      2.67486772849749      2.17602295027705
  H   6.82964092932048     -0.11095575056994     -0.35290327707535
  H   5.38947312640854     -2.13925363393678     -0.35275889898366
