19
Coordinates from ORCA-job 10726optt
  Br  0.98852003185799      0.64375978704777      0.34903924937383
  C   2.84207714725523      0.48873363895828      0.23057492569482
  C   3.66218336176361      1.51798190134844      0.00458918328633
  C   3.36401150561107      2.95566302826067     -0.19824745394908
  O   2.33512341772285      3.54738666953222     -0.22973281644281
  O   4.58580562479926      3.57451062018212     -0.36160329504925
  C   5.58892493150844      2.62748295452282     -0.27785037709600
  C   6.93072326973495      3.05579196703455     -0.41566625126409
  N   8.02489630676084      3.38568321266078     -0.52331190207148
  C   5.10265205751974      1.38909836525933     -0.06663906717387
  N   5.80110953093145      0.21099394396713      0.04806253295454
  C   5.19036243564304     -0.88037587221512      0.25182967692617
  C   5.99999306990878     -2.16163303654263      0.28864081106622
  C   5.34887668528528     -3.28806920097245      0.94620899016964
  C   4.80473008505303     -4.21098791259278      1.47865075569339
  S   3.43637225226366     -1.13218767087370      0.45689641222751
  H   6.94964590653766     -1.92455411421385      0.76982873311005
  H   6.22803647386997     -2.42521047944366     -0.74855017575764
  H   4.32195590597310     -5.03106780191994      1.95528006830170
