24
Coordinates from ORCA-job 10723optt
  Br  1.28076224719365      0.24051784260439      0.12485054171895
  C   3.13772309944302      0.28917895512666      0.03659627868094
  C   3.85369911008156      1.43162995249716      0.02222863324817
  C   3.40573301498600      2.85477892967987      0.02554462282365
  O   2.31488149460827      3.31829722778416      0.04334291647808
  O   4.52786175930144      3.63504863009363     -0.03226787643860
  C   5.75295383943947      2.87893103052675     -0.01307077220766
  C   6.58271521569800      3.26358861917808     -1.24493164638417
  C   5.91384455661589      2.85306907618516     -2.53482133681717
  O   6.49232165760009      2.29289803428804     -3.42259055764229
  C   6.49729121094655      3.20178616924810      1.20986435748907
  C   7.13397372302712      3.45516930597284      2.19038079696248
  C   5.27493320613138      1.44383477401426     -0.02891668160964
  C   5.94577249788009      0.28407983261358     -0.08820456223611
  N   5.23519067198346     -0.88104297950965     -0.08921566261904
  C   3.83910172101945     -1.00764056867212     -0.02358765411583
  N   3.21148309839912     -2.11211844385384     -0.02130735973330
  H   7.56649209162989      2.79799575061615     -1.19067636947082
  H   6.70970864880796      4.34984734198041     -1.23664960062310
  H   4.84159040757166      3.10780937725730     -2.62935356580242
  H   7.68825543640816      3.68738839474729      3.06889853558982
  H   7.02242628768038      0.19438570314982     -0.13142783473454
  H   5.74630159016122     -1.74794411974882     -0.14991614379403
  H   3.82898341338611     -2.91848883577926     -0.07476905876244
