23
Coordinates from ORCA-job 10721optt
  Br  0.84586709881786     -0.05962223808914     -0.08340540689496
  C   2.69282892253088      0.07902486596259      0.10552004012253
  C   3.42177259693166      1.18778663125660     -0.04736711706492
  C   3.16134316681556      2.58579366453248     -0.38716868678998
  O   2.16246308178013      3.18560936262383     -0.63428804601877
  O   4.41302868097182      3.18392367075865     -0.38517379006806
  C   5.39751478825859      2.26550817943834     -0.08124260491975
  C   6.79169014216182      2.75718846299217     -0.09021668397035
  C   7.15454051613061      3.44728566731390     -1.42320933588060
  C   7.09245236010458      2.51593057802053     -2.54301000229600
  C   7.03231160099143      1.72005896560080     -3.43501392333459
  C   7.08529330074726      3.69368360882597      1.07597452133504
  O   6.38118110858019      3.83316145413086      2.02965212806668
  C   4.85393166704302      1.06127091347602      0.12983006415968
  N   5.45305790342396     -0.15412514587804      0.44763500273156
  N   4.74201611562231     -1.15971156272305      0.58713885799121
  N   3.36938914000683     -1.06297558008259      0.42488609957986
  H   7.44893130269375      1.89037841034228      0.04263237300939
  H   8.16095382944846      3.86557273843611     -1.34936944448844
  H   6.46502767752173      4.27649105801286     -1.59628303820955
  H   6.97845347353590      1.01928023538302     -4.23353363745934
  H   8.04378017007471      4.24344725863067      0.98725845076570
  H   2.89217135580687     -1.93796119896490      0.56375417963366
