22
Coordinates from ORCA-job 10736optt
  Br  3.41343186560107     -2.34749194612646     -2.80677498509587
  C   4.34875050122915     -1.86597280468059     -1.20686420544125
  C   3.52880747268944     -2.01869744213405      0.01528809513519
  C   3.42515809043505     -0.95008330261169      0.81143878959304
  O   3.31307903152070     -0.04819496362446      1.49514186037803
  O   6.38983002511556      0.30042085810342     -0.15886144023279
  C   6.37302556924142     -0.87788788918808     -0.38722901697396
  N   7.30740947828540     -1.74730779181728      0.20065073591663
  C   6.88415670508455     -3.01817676261808      0.59993491071023
  C   6.41758173003744     -3.92102406008621     -0.26986299550503
  C   5.21329172170224     -4.58846195855970      0.18470201752574
  N   4.24480560500633     -4.66641067441016     -0.63459041759070
  C   2.92697318990319     -4.55669019787863     -0.20575528211965
  N   1.96507156316201     -5.35682887286341     -0.32884372788342
  C   2.64839573553744     -3.17076463129988      0.42145410024358
  O   1.83052803015851     -3.04073585495977      1.28776992229932
  N   5.51304384837445     -1.43379120870758     -1.33841506888393
  H   7.86598991291308     -1.22631289494443      0.86430647889275
  H   6.76673804195793     -3.16440017157760      1.67128020367242
  H   6.54201540520960     -3.79042783200774     -1.33681225890129
  H   5.08969339669177     -4.73847132429852      1.26339444484496
  H   2.27622308014354     -6.23428827370901     -0.74735216058399
