21
Coordinates from ORCA-job 10743optt
  Br  0.92625596556789      0.17274421909608      0.36456296327492
  C   2.76954499415893      0.03180591745049      0.17126920925937
  C   3.44772208310869     -1.14587955070856      0.09770042486360
  C   3.05397559491011     -2.55796703987634      0.12860685459481
  O   1.98878104527434     -3.06558470354072      0.23114788868343
  O   4.21770582134978     -3.28841725131855      0.00937191366944
  C   5.36249703813152     -2.48016172910102     -0.12117623274170
  O   5.98868811174703     -2.66882069420435     -1.34936370560768
  C   6.47940032247721     -3.93204254825766     -1.59117913865006
  N   7.04827849914202     -4.25428025565309     -2.65145275485880
  C   6.33060770963431     -2.73711038261894      1.05294830161319
  O   5.95466934904768     -3.13052708814776      2.11039346347724
  C   4.84289006408278     -1.05064218590618     -0.05612214102817
  N   5.58005008167957      0.00025588489640     -0.11682800660289
  C   4.92038634997783      1.21929200516870     -0.03802706799299
  O   5.43322036082379      2.29892345147363     -0.07535549731768
  N   3.49033214792990      1.15567254515743      0.10201455335630
  H   6.32309215954106     -4.64327167440207     -0.78022363085380
  H   7.09503285144472     -3.47515860805371     -3.30907809921491
  H   7.38299287597312     -2.49060648708398      0.82612899424138
  H   3.03587657399768      2.05877617563018      0.15466170783500
