23
Coordinates from ORCA-job 10758optt
  Br  1.03093822620663     -0.06305493572924     -0.56549382266182
  C   2.86308990019100     -0.11475523807516     -0.21950911657996
  C   3.57880036503636      1.01049143504558      0.01062959536575
  C   3.34057437210904      2.45102686859534      0.06750816323249
  O   2.36269978311092      3.11512677041200     -0.08740763310613
  O   4.57413181142100      2.99456862703871      0.36116448733411
  N   5.57504444862841      2.00775597753944      0.49665118594182
  C   4.96849139903244      0.90566531130496      0.28748067646286
  O   5.60238510218174     -0.29752838193330      0.32748619074072
  C   4.86558280753919     -1.38914995021401      0.08022165337545
  O   5.55347283960972     -2.50818099819808      0.10873964749919
  C   6.91582282823778     -2.47902072000565      0.57039232564688
  C   7.42187564151775     -3.89765331170295      0.54242573043936
  O   6.70622016409572     -4.73858380428585      1.44735732123676
  C   7.02828000272746     -4.61626808867125      2.73888324381457
  O   7.84787902624305     -3.86535274180670      3.17607641785331
  C   3.52927168505249     -1.36953551813434     -0.18853374443795
  H   6.95193276173381     -2.06385580324506      1.57653034222870
  H   7.51645276097894     -1.85713863514814     -0.09400676481686
  H   8.48191004115083     -3.89585010404935      0.79688212788206
  H   7.27394042506723     -4.33886687396870     -0.44061465247604
  H   6.42557094577410     -5.30783753930826      3.33770982243188
  H   3.01763266235430     -2.30100234545998     -0.36357319740714
