19
Coordinates from ORCA-job 10751optt
  Br  1.17199294170004     -0.08594538184939     -0.68113565949679
  C   2.95909805693817     -0.10438135060048     -0.16826888130872
  C   3.64029532186803     -1.26000551576932     -0.02484496805508
  C   3.30253065892786     -2.68230874906372     -0.10430937348580
  O   2.28736840686458     -3.26657514824789     -0.32712684060222
  O   4.49154250003984     -3.32106788609402      0.16419484302337
  N   5.55109536240810     -2.42171818516366      0.36027655901317
  C   5.03816515913351     -1.24628580737280      0.25537676408122
  C   5.67398720910848      0.04287149703601      0.32228468424568
  N   4.99689093653599      1.12490824931804      0.19918286467459
  N   3.64490305682623      1.07119707591543     -0.00305099106808
  C   3.03623325556743      2.34828396756737      0.01587934365306
  N   2.01727740002996      2.63674492087328      0.74744617313830
  C   1.66492081829865      3.94523075943450      0.56133669446891
  C   2.44171090445832      4.64078700247111     -0.30973171952760
  S   3.66170100854004      3.62848748049935     -0.94729198874936
  H   6.73953411032894      0.15865998289431      0.47214241732316
  H   0.83007348574076      4.35163027896477      1.11146574207198
  H   2.37267940668500      5.67948680918711     -0.58682566339979
