21
Coordinates from ORCA-job 10767optt
  Br  1.06006644566703      0.16836022472155      0.12777210769610
  C   2.93061659352046      0.06550988750013      0.01160529814006
  C   3.68151239708138      1.20168157392485     -0.00387461147534
  C   3.21950241927373      2.60593414128866      0.00335553884701
  O   2.09628697638784      3.03340509578826      0.01673166798035
  S   4.66793959208801      3.65983962543226     -0.02780044930317
  C   5.77670018108617      2.30905713316552     -0.03954111373563
  C   5.13117116507789      1.13133439368348     -0.02717808367110
  N   5.68238066726972     -0.14326374312089     -0.02118786293320
  C   4.92392463407413     -1.25059068100390     -0.03038771627054
  C   3.55561451854359     -1.22782461402910     -0.02127397538141
  C   2.86495868146438     -2.52345158675750     -0.02113644731645
  N   3.41920154321537     -3.57048447583557      0.58915585843562
  N   2.60194651170229     -4.56172434638947      0.32080180953323
  N   1.55049535624388     -4.27044966151622     -0.40698306506330
  C   1.68582451350219     -2.97553817701019     -0.64702653181202
  H   6.84212371164656      2.46955708223409     -0.04513458431517
  H   6.68530333464411     -0.23695113009987     -0.03004885176181
  H   5.45428204391974     -2.19284000738247     -0.03951561318371
  H   2.76484874608655     -5.49193305099990      0.66992111707624
  H   0.96529996750494     -2.44162768359372     -1.23925449148576
