19
Coordinates from ORCA-job 10773optt
  Br  1.09726562703198     -0.23723659380448      0.38571844504884
  C   2.96269771903960     -0.20583679666867      0.27107046350503
  C   3.73250277752583     -1.28125753603044      0.03213402505769
  C   3.22697575391180     -2.66621507493861     -0.18576898479108
  O   2.09251103817326     -3.04673072496779     -0.21074145135039
  S   4.62411226492066     -3.74834903815026     -0.41990185351064
  C   5.76630282968768     -2.42437147700644     -0.26988247337651
  C   7.18399653630267     -2.70968698408214     -0.39467373900362
  N   8.11794956607779     -1.87449574820642     -0.62084056712870
  S   9.58557598539593     -2.68512131296383     -0.66845880248376
  C   8.83876834304766     -4.26501668431458     -0.37651521720196
  N   9.28882623953736     -5.42597112085969     -0.26852994909252
  O   7.49107986110939     -4.03221047548577     -0.26013960421480
  C   5.18933238549636     -1.22021434162415     -0.03467408073529
  N   5.91129839220288     -0.05797079613636      0.15299025938472
  C   5.33534528127853      1.04368532911311      0.37898691784265
  S   3.61202987799846      1.38416567921502      0.51103244981932
  H   10.29722635175270     -5.46312745702589     -0.37251163394215
  H   5.93220316950938      1.93996115393743      0.52770579617318
