21
Coordinates from ORCA-job 10770optt
  Br  1.13542214270245     -0.38828220343394      0.34059300688248
  C   2.97770310788342     -0.30015875231082      0.03316660615484
  C   3.62075894078384      0.87191698556448     -0.07943369198940
  C   3.05500178589265      2.25696338156175     -0.03719677133984
  O   1.92705456943914      2.58095451439039      0.17966448287688
  S   4.37537230642204      3.41981542009585     -0.39090963946943
  C   5.55532948147424      2.12957912263278     -0.52592553484203
  C   5.03814744702637      0.91304514693744     -0.34234000086348
  O   5.77554890470627     -0.22699167912636     -0.37874271485544
  C   5.20488720726465     -1.43313384340149     -0.10762137367577
  C   6.08527148111026     -2.40897393155612      0.20514227063559
  C   5.76248290642006     -3.75306972377796      0.61559493142410
  N   4.75183671280901     -4.46785894468519      0.30196967379828
  C   3.81457976928531     -4.00339930958028     -0.61546008577378
  O   3.50864757043691     -4.61916220376914     -1.59963049256269
  C   3.12257506984243     -2.73918466630207     -0.26082258531552
  C   3.74153046216819     -1.55447331378706     -0.10579184896644
  H   6.59115812528683      2.35086553175389     -0.72839431272421
  H   7.12281475601153     -2.10695557194407      0.27088467870022
  H   6.48545282564494     -4.21466884869021      1.28673762401231
  H   2.04142442738940     -2.78782711057185     -0.24148422210663
