19
Coordinates from ORCA-job 10778optt
  Br  0.81102987384054      0.21634475253806     -0.07162977715681
  C   2.66087084249454     -0.00508660448619     -0.08860238670422
  C   3.30758981114352     -1.18894342695551     -0.15038664897314
  C   2.60266115166122     -2.51059920727913     -0.09895056524475
  O   1.42560265853052     -2.63671045676792     -0.27165090269646
  S   3.52470510315068     -3.97507728110220      0.29602790831564
  C   5.24830177634558     -3.52963422427100      0.24777704580245
  N   6.14617440734875     -4.39270219638780      0.47367004342389
  C   5.61748448627670     -2.16948336869691     -0.09163201210428
  C   4.75817052393621     -1.16202850528314     -0.26451711145180
  O   5.33551049620845      0.03143710442962     -0.66262238133971
  N   4.72631980997190      1.20102433535765     -0.42983159134411
  C   3.48760733215714      1.20568391729840     -0.11108505582616
  C   3.01653061588450      2.58224610984340      0.25931629855039
  O   2.06140021528175      2.81025315308484      0.93671186857316
  C   3.87080589603925      3.68675634920172     -0.22785936445003
  N   4.47582713690628      4.59024699351911     -0.58621732965533
  H   5.77436492099927     -5.31378017373836      0.70190043097618
  H   6.67704294182315     -1.98494727030462     -0.21041846869489
