22
Coordinates from ORCA-job 10771optt
  Br  1.23385466748907     -0.01472075345458      0.27384660240395
  C   3.09263559028662      0.00972671762964      0.02905826877304
  C   3.76701724434488      1.18749488988179      0.05257599219574
  C   3.20702225817158      2.50150749829270      0.45764004955173
  O   2.08777604594313      2.80000411099468      0.75968675852852
  S   4.55780537556825      3.69358867529756      0.50632354927940
  C   5.71094779895971      2.50826658685795     -0.04021515106126
  C   5.18034487247057      1.29441735732953     -0.23094492210052
  S   6.03655597655883     -0.03292183270203     -0.96429651755037
  C   5.03849783844592     -1.41684501896551     -0.51413057137137
  N   5.48364228583628     -2.59482663705618     -0.58341468764939
  N   3.67760790852847     -1.22526558927331     -0.17180836401159
  C   2.93034649808374     -2.43105213810387     -0.02542570950174
  C   2.68248232314936     -3.07554042372459      1.13469768788132
  O   1.95619180062327     -4.18023294812908      0.89065656869271
  C   1.75018530544699     -4.24522276113141     -0.44678940867996
  C   2.33042987611839     -3.19782669902312     -1.06975090659719
  H   6.73219293061011      2.79491333385773     -0.23768518083392
  H   6.46874811627697     -2.61260730446285     -0.83255356155246
  H   2.94139949747404     -2.86817417321466      2.15822014902648
  H   1.18241031801141     -5.08972701153130     -0.79474612592787
  H   2.34090547160233     -2.98595587936906     -2.12494451949527
