18
Coordinates from ORCA-job 10780optt
  Br  1.30881493397799     -0.63615523702091     -0.29683276782136
  C   3.09845376000383     -0.11522681250636     -0.18659870088806
  C   3.52324212804123      1.14025772655706      0.02197684329662
  C   2.68301743782471      2.34123171436227      0.19293896688954
  O   1.49287685016299      2.44608756772507      0.16291949023401
  S   3.75773625300345      3.77129036752245      0.48231868333193
  C   5.18440876853224      2.77060754535505      0.34750005363488
  O   6.46577820315694      3.21178898392874      0.45256416928669
  C   6.76958562332130      4.47812693941394      0.67740424332437
  N   6.00933609834515      5.49856420856157      0.87541127305426
  C   6.95136288123827      6.48366391508167      1.04348008039221
  N   8.17995788656911      6.09101977770808      0.95577606722673
  O   8.06517608573616      4.72621430467853      0.70519116966263
  C   4.94046226382393      1.46316508028000      0.11371150165844
  N   5.97912481709383      0.54654566283358     -0.01779903254419
  N   5.81081126179839     -0.65025338397035     -0.21994586822582
  S   4.22875401665685     -1.41061122479304     -0.37476209326185
  H   6.70410073071355      7.51468286428262      1.23874592074896
