20
Coordinates from ORCA-job 10785optt
  Br  1.08479669110985     -0.26318795468941     -0.04990081768981
  C   2.94497653935320     -0.09519997616028     -0.03462418356265
  C   3.60966271875627      1.08402123911907     -0.03104434128315
  C   3.06567973383689      2.45156161457538     -0.03657548859638
  O   1.92030274133475      2.82012691428522     -0.04734074136143
  S   4.51283423671311      3.49492267641806     -0.02391797180357
  N   5.64927629479417      2.25476448236856     -0.01439307252651
  C   5.06231366829063      1.10249836434437     -0.01937835376656
  C   5.74801838692314     -0.16111508495297     -0.01467290949017
  C   5.00080928106578     -1.27918272242646     -0.01854823410337
  N   3.62200948291239     -1.26863542305062     -0.02749227739323
  N   5.55383661227593     -2.57303939332236     -0.01450350275950
  N   6.90086509112835     -2.75789654854927     -0.01406484514881
  N   7.13122312482783     -3.98814190485461     -0.00921132475472
  N   5.95525446881464     -4.64436735192270     -0.00598882578803
  C   4.88949114969181     -3.78737222361765     -0.00925817264266
  O   3.69932932189066     -4.01591601254954     -0.00804885574577
  H   6.82565070851828     -0.21030307361649     -0.00819140686912
  H   3.12817036914778     -2.15978095505585     -0.02690899837367
  H   5.92549937861452     -5.65075666634244     -0.00193567634088
