20
Coordinates from ORCA-job 10787optt
  Br  1.03884999049927      0.46971511304237     -0.19852087423273
  C   2.90141494521030      0.26812253206020     -0.10531854659959
  C   3.73207523199705      1.34320786293997      0.02820069506765
  C   3.43978910006192      2.78082912883509      0.13675333793150
  O   2.37817019052298      3.34753382944466      0.14418794804248
  S   5.04623242101356      3.55686225385666      0.26588742126537
  N   5.95516244623008      2.13507917670642      0.18999341479882
  C   5.15606112382571      1.13508070471766      0.07019407765654
  N   5.61137981923173     -0.16514305131044     -0.02221470073985
  C   4.78197544599473     -1.22614046544301     -0.12515216810657
  C   3.41705379144667     -1.04390915823923     -0.18038844052022
  N   5.44321132615373     -2.43363561991569     -0.21193118166731
  C   4.97792222045964     -3.47752203570021      0.32401180575757
  O   5.65638448975547     -4.64651773298539      0.18283684632576
  C   5.07085613136539     -5.64376534604829      0.88973422511822
  N   4.01681383276800     -5.41620175337413      1.54671632788872
  S   3.57740398050879     -3.80320796803580      1.33788458671882
  H   6.60926826179121     -0.33155137799990     -0.00642344220757
  H   2.75597530149452     -1.87946591879171     -0.34661168537109
  H   5.57499994966921     -6.59737017375922      0.82816035287350
