23
Coordinates from ORCA-job 10786optt
  Br  1.05474486270898     -0.21183935623389     -0.24478369181496
  C   2.92171156434768     -0.09245135633101     -0.10364398467415
  C   3.68863767683591     -1.22059449099665     -0.08409120206399
  C   3.30108829121306     -2.64406441557891     -0.13466765791443
  O   2.20614165719895     -3.13786462019921     -0.19764098035577
  S   4.84599966387940     -3.53685547991092     -0.07604720185349
  N   5.85122839436315     -2.18284162217777      0.00313453315675
  C   5.12379254179919     -1.12236696411171     -0.00615601419473
  N   5.66101078897875      0.14793284113285      0.04650806559128
  C   4.89121096993089      1.25062786653201      0.04326069848328
  C   3.52959075410146      1.19303654234214     -0.02666703859836
  C   2.73103238612837      2.46259262466004      0.00515904932555
  O   2.11267475001885      2.62785876444247      1.25282878950404
  C   1.80153198969906      4.00679583935746      1.30615848380424
  C   2.99911713314720      4.65577167872455      0.59710917404630
  O   3.56653119536425      3.58797947836203     -0.15724296794696
  H   6.66771059251231      0.22150153660896      0.08663449475343
  H   5.39968116136914      2.20276452260344      0.09044924852746
  H   1.96624426667044      2.46109147519186     -0.78409499190013
  H   1.69626392770373      4.29976663124988      2.34738550524483
  H   0.86699578025861      4.20609604019507      0.77256009901760
  H   3.74917637546381      5.01958377243249      1.29914126231139
  H   2.70088327630677      5.46647869170480     -0.06829367244920
