21
Coordinates from ORCA-job 10793optt
  Br  1.10340542906318      0.02224101082706      0.22752210539436
  C   2.96452427564880     -0.11072196146771      0.13199017880485
  C   3.60350340261619     -1.21837175914997     -0.30561499879644
  C   2.87396790186342     -2.42060885191598     -0.86446959613286
  O   2.38132935307235     -3.28403702086886      0.16512083263209
  S   3.32276333438214     -4.47809274191583      0.63145281490055
  O   3.62385380411909     -5.29020165982209     -0.49514954536162
  O   2.70940427376502     -4.96415054726487      1.80536903746514
  N   4.72387657935733     -3.72633529164407      1.01880814501731
  C   5.67337993897826     -3.47024543076819     -0.00327637531147
  C   5.82643630984315     -2.29030270162903     -0.58785131357453
  N   4.98558502887967     -1.17841175822561     -0.33603833200131
  N   5.68807120109491     -0.03149245886911     -0.16896542835972
  N   5.12838243581320      1.01357064037628      0.20653293077663
  C   3.73520928221250      1.05777916848348      0.54313315242487
  O   3.28984452262694      2.03019647101308      1.08294325277271
  H   3.49735631770424     -2.97962088023942     -1.56133364264951
  H   1.98928362240887     -2.06158520542415     -1.38327178712717
  H   4.63767514158025     -3.04523826345636      1.76452872512842
  H   6.29587822232980     -4.30536420868015     -0.29097743455063
  H   6.64126962264065     -2.08800654935849     -1.26745272145169
