18
Coordinates from ORCA-job 10790optt
  Br  1.38999812734318     -0.52833867006933      0.26255092676172
  C   3.23097315311482     -0.17514256044877      0.24973387655575
  C   3.70437165546300      1.07968883817479      0.04181853393580
  C   2.93657913747567      2.32631138668387     -0.19210161325727
  O   1.75098087885733      2.49392262287722     -0.25063159457188
  S   4.17061859498066      3.60867492458241     -0.37931095370874
  N   5.49909738518319      2.58929195464873     -0.17251322580456
  C   5.11752525407861      1.38542652065562      0.02345277682996
  S   6.32884464314535      0.13450629742556      0.25829183756874
  C   5.27242233563373     -1.23073455347761      0.48285400569826
  O   5.99098953809495     -2.31838934256638      0.69314689998346
  C   5.26086261045431     -3.54387806058217      0.90226416578412
  C   6.22624717851082     -4.61152019107853      1.10827929161018
  C   6.99272640477854     -5.51180182029888      1.28164925902961
  N   3.98848862198826     -1.28144570433603      0.46551017778797
  H   4.63529205411011     -3.73767084893729      0.03074032407959
  H   4.60808215431679     -3.42465015955218      1.76711802543945
  H   7.68190027247065     -6.30825063370103      1.43514728627784
