22
Coordinates from ORCA-job 10798optt
  Br  0.98495301277552      0.57330342634958      1.24096829213085
  C   2.68062755325606      0.25900333444017      0.49888096708141
  C   3.35834213463433     -0.89827241020426      0.78802666451478
  C   4.64560368161251     -1.20720288830456      0.25645964201896
  S   5.44973309110299     -0.08367564576856     -0.81582776026945
  C   4.36163962067732      1.22570662834158     -0.98546128861051
  C   3.15603393293938      1.27871151859741     -0.35503877265009
  C   4.85629453962507      2.28573272326473     -1.88513504057073
  C   3.88316657323320      3.01678419808224     -2.78252928341281
  C   4.48175161546280      3.72563402286383     -1.62414267290225
  N   5.38916704006402     -2.25774404631139      0.45086445225545
  N   5.00767453364177     -3.25908291055056      1.30422676089631
  N   3.92716870381753     -3.29910232720378      1.91009076288673
  S   2.68083901558359     -2.16593708276921      1.80910056692426
  O   2.49344277915542     -1.66437459489578      3.13134683398043
  O   1.61090324812769     -2.80508315758647      1.11243869374954
  H   2.51826116750531      2.13750284875602     -0.51458734246555
  H   5.84395233173326      2.11450482388257     -2.29181043838712
  H   2.84758248920320      2.71216631306106     -2.72229169492511
  H   4.23196829287460      3.26079261719916     -3.77530432855819
  H   3.86053585382083      3.91672017976077     -0.76046589840239
  H   5.24735878915345      4.46491242899542     -1.80880911528451
