20
Coordinates from ORCA-job 10797optt
  Br  1.13530338020419      0.10293026368974      0.25348273038347
  C   2.99513482494923      0.06657332951535      0.02580732287506
  C   3.76939225104485     -1.05601977699621      0.06230889854660
  C   5.19822732473697     -0.88610420810941     -0.09987016907083
  S   6.07663026070776     -2.39227621879283     -0.04525754731547
  C   4.58680982897741     -3.23627897206465      0.27278627803029
  C   3.47194160336377     -2.46320670711852      0.27912562958776
  S   1.86548475247538     -3.09906049627479      0.58336689025477
  C   1.92154992813136     -4.75700678259288     -0.02685560790502
  N   0.86662283552289     -5.35300084333171     -0.37335902252711
  C   3.18577926757609     -5.59113799474025     -0.02244282361637
  N   3.20061259284085     -6.80889241037870     -0.32263432105260
  S   4.72815053142633     -4.93939621318599      0.56006363357600
  C   5.72371199179277      0.33219937123175     -0.28077780728002
  O   4.95665011123938      1.42118615438792     -0.32306761609835
  C   3.57647936187232      1.39065697771132     -0.17585908516402
  O   2.99335844247624      2.43051303434864     -0.22205433568822
  H   0.04015260208003     -4.75729124442417     -0.35869597434807
  H   2.25236693614749     -7.11169263165961     -0.56588368178802
  H   6.77464117243466      0.54930536878504     -0.40818339139984
