19
Coordinates from ORCA-job 10806optt
  Br  0.81495631299987      0.30138848100914     -0.07276673660779
  C   2.68006483571835      0.16181600017086      0.04191412985630
  C   3.19294676036781     -1.10372126665349      0.05995691694944
  C   4.64968849321542     -1.39662295280312      0.07857104662057
  S   5.83201482605623     -0.17102289735402      0.02948414033279
  C   4.89213626281093      1.22214694280939      0.01654311157090
  C   3.52338780036091      1.31979689909173      0.04635201085882
  C   2.97654505123954      2.70195100943136      0.14003449354270
  O   1.89961127558031      3.01415796199794      0.55389419915155
  C   3.90714049138659      3.77253007052839     -0.31366751779288
  N   4.62887601383145      4.59022538713609     -0.66377689030675
  N   4.96434614049081     -2.67054510609998      0.09667284881161
  C   3.73225103176507     -3.24484495514829      0.09285337200231
  C   2.64477245490245     -2.41722484605377      0.06389181356002
  N   1.49268817259251     -3.18938749401000      0.07220347853316
  C   1.95068328508272     -4.38945770836198      0.10230908752205
  O   3.32039300058239     -4.51877181361669      0.11722191762621
  H   5.49688973479493      2.12085454445669     -0.00420135638370
  H   1.39360805622162     -5.31126825653024      0.11550993415268
