21
Coordinates from ORCA-job 10802optt
  Br  1.57071951750117      0.96159191945491     -0.47976607481670
  C   3.26511815543776      0.15060852350442     -0.35616170909758
  C   4.06405915243139      0.04114282141152     -1.45809864366898
  C   5.33548774685327     -0.64264149927855     -1.46634982474787
  S   5.97824048259260     -1.25309465333703      0.04231436985292
  C   4.77091447132674     -0.92406298606611      1.19146671456268
  C   3.59419447883575     -0.32426308323376      0.94592695908313
  C   6.17165933199676     -0.83781441795024     -2.55740288912426
  C   5.96043917026367     -0.66437436670829     -3.98209417479919
  C   4.85209279400282     -0.58788363863431     -4.73247553011908
  S   3.25172402176795     -0.58174041500293     -4.05789789073372
  O   2.96761982037594     -1.80211617148918     -3.35379771178092
  O   2.34254771138035     -0.04311181536469     -5.02244715604620
  C   3.58147530226022      0.66368687214119     -2.73454198308990
  O   3.42581508928556      1.82254634331768     -2.93006684794749
  C   7.48604694758590     -1.32763173659839     -2.26510458812849
  N   8.54122405760088     -1.71069214751432     -2.01660611028102
  H   5.03848132966480     -1.26000159258628      2.18527787875426
  H   2.88297914591409     -0.18022452460406      1.74594401108436
  H   6.89214384110396     -0.64447056000775     -4.53862315002130
  H   4.89301743181834     -0.43145287145384     -5.80149564893460
