21
Coordinates from ORCA-job 10801optt
  Br  0.97771390041606      0.83003639811167     -0.61895693072011
  C   2.72479553378734      0.36972814987214     -0.09183669604303
  C   3.29197332527181      0.79738798137113      1.06219232407930
  C   4.63979220834861      0.40708720515106      1.47319567280992
  S   5.38341113934766     -1.00561182884631      0.74505515534444
  C   4.48411497389909     -1.20613914285207     -0.69537857963030
  C   3.36040971675373     -0.54483951129185     -1.00679375447495
  C   5.35850737904708      1.03661517405419      2.42890819025910
  C   4.88502465106655      2.18591627338483      3.15399266564135
  C   3.62309719512504      2.60012190872132      3.12327830217932
  O   3.12793554196854      3.69212519509706      3.78830525960665
  C   3.18744466256716      4.89971204562459      3.15120879465902
  O   3.79605754007191      5.12165542534386      2.16098400212783
  S   2.35314519265069      1.73322694900964      2.25770075087255
  O   1.55025998746502      2.74486739418803      1.63756900204354
  O   1.74842347168045      0.76642704856410      3.12547890679895
  H   4.88917859057777     -1.96126537349019     -1.35678853820425
  H   2.85861543176425     -0.75625218507932     -1.93952700515369
  H   6.36277254285897      0.69402398453044      2.63842509645026
  H   5.59254327663918      2.76188041619005      3.73871746689533
  H   2.59878373869301      5.61829649234558      3.72926991445872
