23
Coordinates from ORCA-job 10808optt
  Br  1.42799330821640     -2.17903520899372      1.11418261246976
  C   3.11245902839881     -1.43960809383916      0.65949484088158
  C   4.02280233100984     -2.21205762348286      0.01848444535066
  C   5.34274391118335     -1.71660872783702     -0.41258857941136
  S   5.81395088928462     -0.07801828993220      0.10044472372488
  C   4.43235621094951      0.57567022749434      0.85996323694824
  C   3.27384144617580     -0.07254464697941      1.05286723498895
  N   6.26312472009208     -2.24529891763615     -1.10600376825387
  C   6.42727872760781     -3.52937298967123     -1.63874283112911
  O   6.66632181329100     -3.70348987090581     -2.80269633557422
  C   6.23370043896622     -4.60515988463214     -0.63553175191888
  C   5.56103426567083     -5.69134290377113     -1.00663648710490
  C   4.72356095313478     -6.44113679702712     -0.06858008501154
  C   3.86849623859605     -5.79452296688500      0.71634462377967
  O   3.81840351840057     -4.41061450203920      0.81523359837968
  C   3.64110978176874     -3.64014905546112     -0.28868639895215
  O   3.23242013962128     -4.01780994970226     -1.33790600142223
  H   4.56055789750727      1.60101934831816      1.18384694671089
  H   2.44570818705673      0.42766122360670      1.53225425289931
  H   6.34244358896316     -4.34533729902172      0.41035219007567
  H   5.44239597295282     -5.89470806571059     -2.06739676105139
  H   4.67689576170492     -7.52228212838547     -0.08572946118509
  H   3.16240086944733     -6.27825287750583      1.37602975480544
