21
Coordinates from ORCA-job 10803optt
  Br  1.13435059956083     -0.04044734061872      0.77251997507406
  C   2.93095632300073     -0.12699415878542      0.21897833904886
  C   3.54099869374593     -1.33647700179519      0.04006846875934
  C   4.99035316019491     -1.45893352768885     -0.08974061250545
  S   5.96025566521978     -0.08292827609135     -0.54554680496450
  C   4.89122202870939      1.21634109557300     -0.29951872734541
  C   3.59605050350577      1.15021254272981      0.07088771191225
  C   2.85833090814859      2.45541726758897      0.28924064905730
  C   2.63679286544580      2.73714419656923      1.71012011024141
  N   2.48736026201436      2.95879830216388      2.82350786738337
  C   5.61070996729164     -2.63363434433638      0.12534012931786
  C   4.83831867149547     -3.79931076540793      0.54018001136646
  O   5.31606743211353     -4.76270516584808      1.07908306109104
  N   3.45104344170702     -3.76643041560778      0.23147816373607
  C   2.87230783814835     -2.64948362474461      0.02287451440417
  C   1.49778461015773     -2.76686540054349     -0.44417333090491
  N   0.45082659641878     -2.91799256980575     -0.88431116901820
  H   5.36217929630901      2.17816988797877     -0.46350920076104
  H   1.89317441491271      2.45535603389469     -0.21788901800216
  H   3.44644570145618      3.27317265246959     -0.12675344489522
  H   6.68647102044343     -2.73740938769435      0.08516330700471
