24
Coordinates from ORCA-job 10818optt
  Br  1.37877343079870     -0.10116952109452     -0.97160090561310
  C   3.15612514766375     -0.08251192545895     -0.37688474853184
  C   3.88501220472772     -1.20947288716431     -0.09540748406705
  C   5.26865603585303     -1.04943762064437      0.27463202797032
  S   6.08031536220598     -2.57496145812313      0.51165544191344
  C   4.59542665184948     -3.42951712753537      0.18562098357124
  N   4.63338180787192     -4.78066753836982      0.23862102004480
  C   3.74339185379200     -5.63968431261931     -0.54304331619259
  C   4.44342504856525     -6.86901218020141     -0.90375776784139
  C   5.03572073864147     -7.87089764975770     -1.18107179797595
  C   3.51943013646436     -2.61443242172476     -0.09130018595602
  C   2.19777367753119     -3.13140160692838     -0.16407433789537
  C   1.09331312505111     -3.60116001515645     -0.16682802435113
  C   5.82830542173842      0.17280375802751      0.38033889183259
  N   5.06731676624925      1.26334878861429      0.12299471105839
  C   3.72855223949481      1.25020358206116     -0.27773960933242
  O   3.16396066866833      2.30050084532283     -0.50835559530187
  H   5.50989371133275     -5.20381429132970      0.49790340135276
  H   3.43312731796423     -5.10761442033547     -1.44453027511840
  H   2.83864796548917     -5.87691247699400      0.01724333361437
  H   5.55564449145265     -8.76394230552580     -1.43507904552161
  H   0.09984075403241     -3.98039511669532     -0.18683842404559
  H   6.85921383114589      0.34514245154808      0.65486987277126
  H   5.46375161141605      2.19000545008498      0.18663183361516
