20
Coordinates from ORCA-job 10824optt
  Br  1.78042170143844      0.79377941966316      0.67887153082607
  C   3.56575873456611      0.46908136727391      0.26322989595291
  C   4.58925188392203      1.34325838677092      0.43240781507507
  C   5.92244690772269      0.90332639778600      0.01636960947596
  S   6.29103233159379     -0.79566069320397      0.33916517386509
  C   4.82175270652103     -1.50860319785062     -0.32340525916039
  N   4.68825224775019     -2.66453647642247     -0.77212679280098
  O   3.67177303363338     -0.74269232980019     -0.28873231719462
  C   6.89848914196447      1.62541712559292     -0.56714702087662
  N   6.83891404345576      2.95414782399300     -0.95496495433014
  C   6.24965500172423      3.84895507221057     -0.27376523971309
  C   6.20988984564035      5.23509843380439     -0.85109901007606
  O   5.61685796813495      6.13646831810785     -0.33708187557908
  C   5.61600290183598      3.61022722463332      1.07505139625386
  O   6.00426307201269      4.14653770897418      2.06803261981270
  C   4.40015803036121      2.66008590240173      1.10031991994443
  O   3.40254165263248      3.03927333917854      1.64417619865313
  H   5.57027425094467     -3.16716238915799     -0.80795487839599
  H   7.80759980992932      1.12236500659168     -0.87129403309214
  H   6.77066473421612      5.32863355945302     -1.79705277864010
