23
Coordinates from ORCA-job 10821optt
  Br  1.15674562787964      0.10560546648563      0.75751314378291
  C   2.99719706142907      0.18904329403106      0.40819892591088
  C   3.59957010848719      1.30601354591596     -0.05790924786679
  C   4.99925952638729      1.32809676972650     -0.41134600177697
  S   6.07296152598023     -0.02808622727886     -0.21229272210919
  C   5.00726294018610     -1.25981306570098      0.46321571851732
  N   5.38606223220906     -2.41849956408065      0.79471670605171
  N   3.64938180955393     -0.97087175842326      0.63837615515465
  N   5.38307475290311      2.46183618434362     -0.90441737598724
  C   4.25208469799771      3.27905551983698     -0.88076397608234
  C   3.15890969152759      2.64341212489296     -0.38987738698058
  N   1.87511751294895      3.16828332793795     -0.18819162372363
  C   0.87360726710390      3.35429787226345     -1.14321960102389
  C   -0.22047152725251      3.73162369321206     -0.48932541068523
  O   0.04385037826917      3.78305074750704      0.86413133105084
  C   1.34749467414979      3.41953807796676      1.06554197352638
  N   1.95615494589909      3.31081684600723      2.16448555756029
  H   6.37727709001401     -2.57340581985716      0.64075790080351
  H   3.12924676395414     -1.75977186284902      1.00190014621861
  H   4.31427203275046      4.30208210675373     -1.21844507330101
  H   1.05595180259239      3.20378765992501     -2.19167844567020
  H   -1.20916673527880      4.00330072234493     -0.80711786872705
  H   1.35015582030841      3.54660433903901      2.94274717535704
