19
Coordinates from ORCA-job 10838optt
  Br  1.50488847495170      0.46565825450193      0.66237557873801
  C   3.24542198924020      0.07729618763902      0.08876645275970
  C   3.71045819873468     -1.18973848624371     -0.07125078420584
  C   5.13370918845260     -1.45097717456688     -0.30593823503968
  S   6.15921951573699     -0.14585703417649     -0.84163927872904
  N   5.28568545700753      1.20158691822212     -0.59229168864343
  C   4.09624766771041      1.23307272761141     -0.15582296992881
  O   3.57733248208362      2.48469954835044      0.09563608175277
  C   2.86490622917961      3.04662122573067     -0.91741848886599
  O   2.64164499586899      2.51631292785923     -1.95387281646514
  N   5.70005844712095     -2.58498220840848     -0.15814929018301
  C   4.91515288913859     -3.63639097584897      0.34620890440622
  O   5.39942785896338     -4.56400138242160      0.92288970492466
  N   3.51615445448992     -3.58592039835087      0.11260677385561
  C   2.94140431439364     -2.45628513727285     -0.04763738819422
  C   1.53763767033702     -2.48887517900023     -0.36265362855387
  C   0.38674195692668     -2.61665572874740     -0.66402542810854
  H   2.54087268019279      4.04497750277879     -0.61104909744921
  H   -0.63896447052936     -2.71654158765615     -0.93173440207019
