21
Coordinates from ORCA-job 10842optt
  Br  0.95593570284592     -0.31198134527675      0.67299386451026
  C   2.80397017740101     -0.19086913379185      0.34421220894987
  C   3.56386029133029     -1.22415046055237     -0.10359177185877
  C   4.96908809301306     -1.05284220259444     -0.39108479466884
  S   5.58130324956209     -2.56397046935530     -0.99195633138340
  N   4.12062885783443     -3.37449839696622     -0.85524351019025
  C   3.20267744383578     -2.60847872843945     -0.40569051946461
  O   1.95645059769626     -3.03928236437414     -0.17470493237357
  C   1.65614820967790     -4.33445706270414     -0.62988389076451
  C   0.35711322321665     -4.76829253977144      0.02413571404959
  O   -0.14428143404543     -5.82564295792237     -0.21743958704913
  C   1.49578911326179     -4.36414940731322     -2.14938627071782
  O   1.67024440879598     -3.39842432148743     -2.82530280982317
  C   5.71479984604631      0.07098469048516     -0.23776550907302
  C   5.20234769004272      1.30814827017716      0.27231975430905
  O   5.80982423182930      2.32503901410431      0.47252597484250
  S   3.41782984653115      1.37173532134954      0.65731484069532
  H   2.43893024808299     -5.05190710811503     -0.35909606804113
  H   -0.08390093097562     -4.03446818015469      0.72231616216066
  H   1.18412941065055     -5.34155396448431     -2.55411349430093
  H   6.76811172336682      0.08206134718700     -0.48955902980808
