21
Coordinates from ORCA-job 10848optt
  Br  1.77855999422811     -0.63965465802842     -0.01220142822589
  C   3.55616879662521     -0.06099607621869     -0.00741027315759
  C   3.87482936629019      1.26974782477216     -0.05434412156594
  C   5.27752102798954      1.68565215108152     -0.03912279415786
  S   6.49366864348436      0.52005588365291      0.02048421617396
  N   5.70826226776273     -0.92376528107225      0.05814799756907
  N   4.44942209989263     -1.08348233319822      0.04564397310548
  N   5.42923987674043      2.98627253350292     -0.07306273024620
  C   4.15322590386992      3.48008640088840     -0.10756252413622
  C   3.90126799763330      4.94163316394554     -0.13491337822898
  C   3.07644037374866      5.41346095369679     -1.33035580286954
  O   2.80777897278593      6.56888487894278     -1.48576450244490
  C   3.22863313282510      5.45221764535770      1.14948004594603
  O   3.16436104341012      4.81898686499043      2.15719559318888
  C   3.16729305643629      2.50013511575707     -0.10340898576456
  C   1.77574879649581      2.76548879057352     -0.12075179199748
  C   0.61854138859615      3.08349111267179     -0.14358553451408
  H   4.85469073425443      5.47819674177517     -0.19367511686140
  H   2.74174709433577      4.63382017643876     -2.03598908517018
  H   2.82034859106853      6.47319772687998      1.05656565652343
  H   -0.41274915847328      3.34557038359011     -0.15236941316604
