25
Coordinates from ORCA-job 10852optt
  Br  1.12622948963101      0.21164470578105      0.19533430254611
  C   3.00786481203987      0.11605151837793      0.09608060234183
  C   3.63977499325715     -1.01658469113054     -0.30241280443241
  C   2.80863829775565     -2.17860535429612     -0.78880146499836
  S   2.06213093989784     -3.29658456942551      0.45116270076114
  O   1.03221856279395     -4.01766325694341     -0.23749202748483
  O   1.80985482423391     -2.61484529553152      1.68278633954022
  C   3.52107062716838     -4.30552764663301      0.60537861666595
  O   4.18682285849199     -4.66896959999418      1.77037791737945
  C   4.63917878006876     -3.50081117353346      1.10911451610827
  C   5.81351395190424     -3.40172996957062      0.22893855979812
  C   5.94258052948846     -2.30302250287296     -0.51619212004147
  C   5.11277841421402     -1.06912732997454     -0.43303477243207
  C   5.83281311913052      0.06904066176790     -0.49887098837152
  S   5.26160712505809      1.66131110224775     -0.23318142238857
  C   3.65892176441902      1.38563934697562      0.47038261718070
  N   3.06995382974179      2.27855261130383      1.14191944092919
  H   3.39625378244499     -2.83539703196364     -1.43177222113930
  H   1.94819173100115     -1.82496398063222     -1.35497541138859
  H   3.65313752577984     -4.95663460278517     -0.25399371032066
  H   4.37170385160767     -2.59947891641276      1.65351371868095
  H   6.49876912268194     -4.23519977415822      0.13645874015971
  H   6.79466446830301     -2.23125391659646     -1.18275443029587
  H   6.89638654602463      0.02941199473468     -0.70165788244559
  H   3.65294005286207      3.09674767126559      1.30869118364759
