23
Coordinates from ORCA-job 10851optt
  Br  1.15816696121872     -0.07920238087412      0.13054796912885
  C   3.03611106294798     -0.04327780277261     -0.00861166642248
  C   3.72998212451456     -1.23338096751863     -0.16142058219066
  C   3.20023614252578     -2.63559055119843     -0.12246551449709
  S   4.63362472058930     -3.61217638054905      0.43927193554084
  O   4.63134836305489     -4.90999902535695     -0.16645539327038
  O   4.74720508598443     -3.46602543311332      1.85912544142877
  C   5.83791057319004     -2.47728195237484     -0.37280702030858
  N   7.14691305366186     -2.43378750310069      0.22085741130222
  C   7.69274879772104     -1.30656659472327      0.32775918136821
  O   7.17959286853611     -0.07723975556411      0.00880824365374
  C   5.81250100503209     -0.01690497298179     -0.09553399437531
  C   5.13708666413897      1.17824123678563      0.04197685845430
  C   3.73654114821196      1.17321580723718      0.05816778366011
  C   3.05187401524253      2.41985025530942      0.18935838048612
  C   2.50275797027026      3.47920205927803      0.29840118361123
  C   5.11084678297250     -1.18747873689779     -0.26824590204545
  H   2.90401570228322     -3.02108894918968     -1.09864814605856
  H   2.39330480022858     -2.77718720997852      0.59494640659276
  H   5.90732299754438     -2.86053325540262     -1.39593155931105
  H   8.70058010448655     -1.20175619196915      0.71140888222898
  H   5.67468035555178      2.10841444084167      0.16061758355753
  H   2.00864870009240      4.41655386411367      0.39687251746589
