27
Coordinates from ORCA-job 10850optt
  Br  0.91613073555719      0.76794815052081     -1.80487697355145
  C   2.59789043947697      0.49392343967334     -0.98766099635879
  C   3.06590559260430     -0.71833130929899     -0.63322183814996
  C   2.32043910736435     -2.01078013217574     -0.98388417135059
  S   1.99471265689706     -3.56874855408570      0.07101475849065
  O   2.23190468613172     -4.65770327683040     -0.83853468935583
  O   0.68956041501241     -3.37486098891604      0.64348724843970
  C   3.14364652503429     -3.70568878832067      1.50650918456436
  C   4.55050506546637     -4.34017630615507      1.29300036406505
  C   5.54749894249336     -3.13893588983353      1.09389893826942
  C   4.50686527980863     -2.14306602614293      0.60436940828528
  C   3.45852979882637     -2.25193101412622      1.73779337268012
  C   4.39232164222563     -0.77513651726623      0.04139569262408
  N   5.25462151249577      0.15000507359487      0.23573803682881
  C   5.07875814404968      1.45191724148257     -0.19021231749342
  O   5.91853933462742      2.29790362407267     -0.14335845054648
  S   3.45605453483564      1.97994283182153     -0.80134247980326
  H   2.79858227141095     -2.46728727389480     -1.85279460354698
  H   1.28948282203294     -1.78447479158558     -1.24786215896841
  H   2.52080901864340     -4.21189735362391      2.24226387755215
  H   4.54862941994745     -4.99310369077959      0.41932098119123
  H   4.80388545374238     -4.94906552064870      2.15912428272432
  H   6.31183158769069     -3.36485934264201      0.35427947259392
  H   6.02946277720135     -2.84434010590870      2.02426368775587
  H   4.14582829429468     -2.71987630919047     -0.24303781306909
  H   2.59632709537158     -1.59210153829150      1.65928085053564
  H   3.94627684675735     -2.06627563144897      2.69504633559365
