24
Coordinates from ORCA-job 10859optt
  Br  0.97910185415399      0.27393106222826      0.08039119312697
  C   2.84414730134923      0.07082356636170      0.06838228523545
  C   3.48003472842661     -1.11225295664383      0.27852261285937
  C   2.72263884185003     -2.37897978272678      0.53359894247259
  S   2.87979021695832     -3.60234582383573     -0.78057654730138
  O   2.91546902607762     -2.94469964378291     -2.04807683477069
  O   1.94488070882587     -4.64879341419379     -0.49485940317097
  C   4.54703606710412     -4.30873023999409     -0.42197518974713
  O   5.56458109651569     -3.38402248207477     -0.55273049944627
  C   5.67943443454473     -2.43214552189446      0.50614710098525
  C   4.91883997495955     -1.16441992504340      0.25716209042077
  C   5.59787341240981     -0.02440024906884     -0.00256780477373
  N   4.95153902116897      1.14540349637236     -0.21136132898905
  C   3.57216703254310      1.31910589593535     -0.18189912374132
  O   3.08332673559084      2.41086441667235     -0.35236548038212
  C   4.76326183117200     -5.42262136834408     -1.34527294612359
  N   4.92743938248969     -6.31233694564748     -2.04494319315037
  H   1.64799341591590     -2.21587553510009      0.59496369182246
  H   3.04251028650676     -2.87755312394186      1.45103989571976
  H   4.45970996156773     -4.71082315026121      0.59584666861427
  H   6.74183246554930     -2.20474201510317      0.57594034104408
  H   5.37758479822873     -2.90509302458032      1.44772847552889
  H   6.67781533859698      0.01043637180957     -0.05279507000409
  H   5.47099206749436      1.99227039285726     -0.39729987622914
