25
Coordinates from ORCA-job 10858optt
  Br  1.01832991426415     -0.12201695938216      0.24017047476622
  C   2.87744316168281     -0.00838443211133      0.02085603145378
  C   3.58699101342582      1.08555381737019      0.40281314637286
  C   2.97290844762666      2.28499717836470      1.05171499949310
  S   2.74092796841709      3.68569840719535     -0.04078894412000
  O   2.42006747344379      4.82047223679409      0.77766111507323
  O   1.85480951069647      3.28970422092723     -1.09363473226368
  C   4.31850535517620      4.01325693438544     -0.78165183494377
  C   4.27391238896272      5.08728981990327     -1.83917461882097
  O   5.25533637319743      5.41290674624777     -2.44304619822214
  C   5.47554419449459      3.43673030676665     -0.48216249147664
  C   5.72469535938289      2.33024576658424      0.50983786029047
  N   4.95634093139562      1.11967936260312      0.22485399036843
  C   5.59359078149763      0.05421106054485     -0.34742443195118
  C   4.94899801503074     -1.06151226306195     -0.73085396823579
  C   3.51142624707162     -1.20045147128264     -0.57566916739285
  O   2.88907887719380     -2.19346735900609     -0.89564312081850
  H   3.53079114703817      2.64300727052548      1.91476343661094
  H   1.95121922837864      2.07104699125689      1.36394816017797
  H   3.29280703858501      5.55104221796187     -2.02103511247470
  H   6.33191717148637      3.80902380148884     -1.03918650803863
  H   5.52422217800568      2.67283491482663      1.52594939246130
  H   6.77423604381921      2.05184421174390      0.48265381271380
  H   6.66233813069990      0.16794165942901     -0.46620661255891
  H   5.49356304902691     -1.88565444007542     -1.16774467846432
