29
Coordinates from ORCA-job 10860optt
  Br  1.36485881187957      0.77792238845012      2.77766619432834
  C   2.53884233464414      0.89730117324915      1.29568767623416
  C   3.29127463063303      1.95948581239642      0.96859263232399
  C   3.15598650170486      3.29145327902656      1.62836397648128
  S   1.99523641189724      4.36987916384279      0.76486420339565
  O   2.41703385522983      4.50377595261984     -0.60239018331257
  O   1.84759629920086      5.52846593310885      1.58885386373681
  N   0.52920985757340      3.64932365735020      0.74567685348435
  C   0.01902866293278      2.55833363077684     -0.09575270231482
  C   0.16607876931932      2.74523224705017     -1.61489577957276
  C   1.11973960651584      1.74413434668174     -2.27101327748210
  N   2.48973650226622      1.94189231780441     -1.81869085309781
  C   3.24521003781466      1.15085841479296     -1.08750149721538
  C   4.21082676101941      1.67054245533993     -0.20012699063647
  C   2.83932179744780     -0.24572583797306     -0.75803314295842
  N   2.82548201732466     -1.32198628109322     -1.39457224443081
  O   2.49619048013881     -0.28166031474043      0.58851727866577
  H   4.09846099384592      3.83792531008885      1.59786335104801
  H   2.78371109869562      3.24395008880730      2.65131421025580
  H   0.05922848808711      3.76329487301004      1.63309920376396
  H   -1.04106920775146      2.51481134506271      0.15047765046143
  H   0.43670334296347      1.59416581754414      0.19959659822485
  H   -0.80906124321176      2.60713138805177     -2.08421427587324
  H   0.48560606509527      3.76211431221918     -1.83743085335461
  H   1.08937092457435      1.87164847573349     -3.35424654081197
  H   0.82628278596834      0.71800276615331     -2.04426851483666
  H   2.82230833506682      2.90707244451675     -1.80777366174555
  H   4.92406262107692      0.90385340420590      0.10260266668245
  H   3.08174245804692     -1.16319856407677     -2.36626584144364
