27
Coordinates from ORCA-job 10866optt
  Br  0.97460629881000     -0.10026061106421     -0.21613524812203
  C   2.82440009871952     -0.09659939936442     -0.00788918569841
  C   3.60894218382279     -1.17121329675483     -0.23124660946821
  N   3.02791092496253     -2.39573158913393     -0.58387546391957
  C   2.87996580409128     -2.69955750614324     -2.00901991367361
  C   3.83675223844699     -3.45476152974691     -1.16869368871035
  C   5.35029749219280     -3.31586201693679     -1.28473553233602
  O   5.95741624538185     -4.54601509886467     -0.93550372609373
  C   6.44237284400369     -4.49695683049516      0.41049813796415
  C   5.94496382238480     -3.17864135252302      0.99187697364480
  C   5.89003141926252     -2.30419225834594     -0.26641352216158
  C   5.06741384069060     -1.05975328484558     -0.15245703216597
  N   5.70368914617849      0.05759587963587     -0.11781151843401
  N   4.99098706474438      1.20229681711409     -0.06546969268298
  S   3.53874821817496      1.31403671868715      0.73190565672353
  O   2.94607109526883      2.54137164986095      0.31489352980284
  O   3.69887798792093      1.04540006869241      2.12387988550857
  H   3.29692701908960     -1.97474443612949     -2.70062160053739
  H   1.93172170684925     -3.13344836906718     -2.29551334216011
  H   3.53647336664356     -4.43897387462572     -0.82840064890370
  H   5.64369072307842     -3.07156052467958     -2.30672288873264
  H   7.53456951999584     -4.53181861097157      0.38700720232604
  H   6.07683440041884     -5.37062908934472      0.94942115725218
  H   6.60445218139584     -2.76952915384870      1.75429927757950
  H   4.94521069231715     -3.28699620176464      1.41846133415549
  H   6.90008531115991     -2.00748476036478     -0.54974688222034
  H   5.55258835399453      2.04402866102465     -0.03498665893646
