28
Coordinates from ORCA-job 10869optt
  Br  3.76185042069953      0.40586133846936     -2.24344038395576
  C   3.27897030790060     -0.02056386131306     -0.47356254445427
  C   2.30469415878057      0.69458913609711      0.15948851484163
  N   1.61980289773502      1.68760491257242     -0.50095180788812
  C   2.15847569534517      2.86962351785577     -1.11900101671298
  C   0.99304258711492      2.95611591586760     -0.19444210464079
  C   1.01968822754274      3.75640725844625      1.09167237346585
  C   -0.34849652498848      3.77791331272168      1.79062186917908
  C   -0.77344179866642      2.51947810487196      2.55953029402151
  C   -0.29568279513399      1.21789914431323      1.95263499194748
  O   1.11371265062665      1.20820181619292      2.18526254523789
  C   1.89666498537412      0.32488540882126      1.52988904071277
  N   2.28927229518480     -0.68670381086800      2.18704627217933
  S   3.40736584108782     -1.75694426135872      1.64342483291880
  C   3.98901169465070     -1.16776390010242      0.08229442028301
  N   4.93916934078907     -1.74928612749456     -0.52825505618768
  H   2.03152984658245      2.96381624383818     -2.18970570029415
  H   3.11085302157178      3.21887123630843     -0.73072271791717
  H   0.02808088691900      3.01982106203195     -0.69387821346384
  H   1.24756429080380      4.78462244694895      0.79708498419222
  H   1.81886715498984      3.42430862917891      1.75241076971353
  H   -1.09719623396225      3.99486556435300      1.02246474139354
  H   -0.37582803198900      4.62421140169083      2.47875120681015
  H   -1.86110797863880      2.49837880392796      2.64846322213341
  H   -0.37292953394371      2.54912474697618      3.57494887572539
  H   -0.50772304665039      1.14704020804600      0.88130131906305
  H   -0.73997511041761      0.35345023029068      2.45196254441953
  H   5.31676475069205     -2.53782847868392     -0.00529327272339
