20
Coordinates from ORCA-job 10864optt
  Br  1.45127258601208      0.14837275524962      0.89700051485551
  C   3.07236010391944      0.05689793871206     -0.01657568855526
  C   3.75065264373864      1.11111737832728     -0.47282719829651
  N   5.01507235051187      0.77625300888283     -1.09902348731593
  C   5.75304877722551      1.90826048028203     -0.85666286030545
  C   5.11435293207473      3.00343861062852     -0.41929555751594
  O   6.03306119696862      3.70075112113505      0.34777208280557
  C   7.14612939524850      2.93448196948723      0.43527119250639
  C   7.01499860855133      1.75708248778109     -0.26832954495565
  C   7.16474682250203      0.26375532985242     -0.07360532168316
  O   8.08090990125446     -0.37997353760480      0.34665877845840
  C   5.77801274512703     -0.24759304188439     -0.43461515350416
  C   5.05593887535598     -1.28347656473474      0.00489767869206
  Br  5.76239977736524     -2.76757621845382      0.88553840126975
  N   3.66808094868574     -1.21261476086644     -0.12228850310214
  C   3.70876268720096      2.59251198853995     -0.14789039958071
  N   2.69456661592514      3.18283561399633      0.32320692144776
  H   7.93452564819744      3.34255161390453      1.04640189443866
  H   3.13089813373147     -2.00055116737972      0.20602290593990
  H   2.89120925040373      4.16547499414496      0.50234334440091
