24
Coordinates from ORCA-job 10863optt
  Br  1.47576141789995      1.09579049565618      0.53283199719328
  C   3.22438986506603      0.58832127458607      0.03417614224677
  C   4.29437511594887      1.31073142029546      0.43583441206304
  N   4.09584334690854      2.42130133506436      1.29055599186880
  C   3.52149868416818      3.69622710196666      0.84374478613913
  C   3.47764171197450      4.00818012611306     -0.64506326698333
  N   4.83284141072279      3.79405466239375     -1.16042593924762
  C   5.60273990529379      3.58259382548329     -0.17414255164986
  N   6.87705249646083      3.03923736904630     -0.23812186738033
  C   6.84312668824751      1.74926382459126      0.48768816923803
  C   5.65046331908376      0.88273912342653      0.08626060559523
  C   5.92000572855712     -0.23765011864456     -0.61718287468669
  C   4.97106597471347     -1.19668391876268     -1.15464671475986
  O   5.26751451438635     -2.19062627509275     -1.76915619109736
  S   3.23888187349073     -0.86410142040789     -0.89239480065005
  C   4.95722534141151      3.58295462944810      1.17559975163895
  H   2.79054352625967      4.11555231758560      1.51988266303985
  H   3.14646751891019      5.03725577051909     -0.79913188995876
  H   2.79712631178591      3.35499127083395     -1.19610165669288
  H   7.14328863969947      2.90647861144332     -1.20875842516484
  H   6.82014550011011      1.95358806568320      1.55830282380481
  H   7.76490380672428      1.21505953565248      0.27431232130146
  H   6.94954529091176     -0.49502657897152     -0.83958572277888
  H   5.45555201126459      3.94076755209071      2.06652223692110
