25
Coordinates from ORCA-job 10861optt
  Br  1.62890599859471     -2.29025954490092      0.49701451794564
  C   3.26499737428769     -1.47597406208055      0.07444832148501
  C   4.43854388989983     -2.12808553749184      0.21011477006748
  N   4.70444243920320     -3.37532767382448      0.83774251522257
  C   5.43653479269069     -4.40273357124808      0.05681369393479
  C   5.85049538974825     -4.10067056608989     -1.37362472926547
  N   7.03338474904182     -3.24098916649692     -1.21769578662906
  C   6.81611468924481     -2.45743606065317      0.01002834916922
  C   7.95705596904226     -1.47699634987718      0.32715182648186
  C   7.49998667371001     -0.10430847366705     -0.27558467920465
  C   5.98882150440818     -0.24430523062065     -0.32066432805896
  S   4.73576962814798      0.92194746158552     -0.49523498553052
  C   3.19735239569748     -0.06590449171420     -0.35359290031048
  O   2.18623555085301      0.54569873831607     -0.55235240527479
  C   5.66678752569431     -1.51579751158772     -0.12393209226946
  C   6.18485342294086     -3.50474588624302      0.95241552919915
  H   5.16334120660802     -5.41289333645612      0.32655265397409
  H   5.02769304155982     -3.61541099319697     -1.91303438111218
  H   6.10928939297584     -5.01707872030686     -1.90218242884122
  H   7.16176270525486     -2.63189722631253     -2.02073012484024
  H   8.90851371755025     -1.81701017543417     -0.07821971705303
  H   8.05980945925480     -1.36987016649957      1.40727615884863
  H   7.90791607384384      0.06022552928693     -1.27648578954844
  H   7.81421161257424      0.73865586137962      0.33990471640641
  H   6.58218079717317     -3.76883284586625      1.92187129520367
