19
Coordinates from ORCA-job 10875optt
  Br  1.11412058050329      0.54585181985369      0.09278199768205
  C   2.91954910963531      0.08144684539110      0.09142398091862
  C   3.40324322074264     -1.18392036792680      0.08971708922610
  N   2.87311756978371     -2.43987872584556      0.08864078252492
  C   1.64111702046548     -3.09886650500653      0.08860253563207
  C   1.99729872462223     -4.42340490199670      0.08699151726973
  O   1.44751029175749     -5.63388587858948      0.08599837358061
  N   2.58227562397035     -6.56229579494390      0.08432691996980
  N   3.64202612009454     -5.93414657341967      0.08451488029020
  C   3.39766947876750     -4.58191277083224      0.08609095053734
  C   3.96731041665165     -3.31982064191949      0.08708160114567
  N   5.16065804876891     -2.66270168579423      0.08705805275305
  C   4.84054244643193     -1.39586263099760      0.08863345412190
  C   5.64411396535870     -0.22085191517786      0.08929128468444
  Br  7.50888408841511     -0.37977703080506      0.08741182947832
  N   5.14155048967547      0.97181957323969      0.09110754489149
  N   3.81385137070232      1.09827929393419      0.09216351790931
  H   0.70273362811380     -2.57980162549683      0.08963192970225
  H   3.48642780553952      2.05272951633329      0.09353175768213
