23
Coordinates from ORCA-job 10873optt
  Br  0.91724688480902      0.48936757029861      0.45938746505196
  C   2.76769565169288      0.10604484275654      0.34457575858500
  C   3.26109107301900     -1.09750441611663     -0.02336262172942
  N   2.48816737624720     -2.14210665453208     -0.55240921044858
  C   1.19304533172632     -2.60016235833605     -0.11464831945658
  C   2.37026307688026     -3.50128455114781     -0.05732212079517
  C   2.94321171578248     -3.82438426099811      1.29779651841895
  O   4.29358663549738     -3.37049747651048      1.38427234543094
  C   5.03810566125896     -3.61013892840999      0.26776382322318
  N   5.52982789036887     -4.71013195946874     -0.09125616821901
  N   5.27125887304550     -2.45108724001020     -0.45510615518369
  C   4.72898259845531     -1.20492482040069     -0.18903750698298
  N   5.58492570340086     -0.24366869843407     -0.23212037687192
  C   5.30841767270958      1.08158985299650     -0.02779417153871
  O   6.09319225762989      1.97313228978548     -0.17998670403855
  S   3.69249447805394      1.53983188825704      0.61338244699509
  H   0.45267379069047     -2.70403544828209     -0.89694318129858
  H   0.81602824626289     -2.26196821545187      0.84138237150011
  H   2.51446755107850     -4.25199637284518     -0.82563170181276
  H   2.88872942990631     -4.89947471179512      1.48554039015791
  H   2.42203827073617     -3.29716159262042      2.09466881434000
  H   5.34344969581798     -5.43147937737731      0.60002004619173
  H   6.16410013493019     -2.41795936135730     -0.92817174151893
