27
Coordinates from ORCA-job 10878optt
  Br  1.45192329664598      0.70383249425258      0.94443984298258
  C   3.09712460947053      0.25319162168523      0.18498276050653
  C   4.14653344480055      1.07941763836200      0.10332228877551
  N   4.27189086894926      2.42160321615519      0.50420625615455
  C   5.62407802706792      2.89418723285797      0.05962778313595
  C   6.37441373929287      1.67565709276499     -0.51491657718835
  C   5.33686155702475      0.58561916806192     -0.54522375891121
  C   5.38695096835042     -0.65169254699828     -1.05282804572989
  C   4.22685287494175     -1.53027629656296     -0.94901382431337
  N   4.07856926107800     -2.70805381915824     -1.37624377889927
  O   3.13078530794917     -1.00583535545661     -0.28363877457137
  C   6.19571959378171      3.47223321024808      1.36851985258329
  C   5.67539940691037      2.45666550480592      2.39830605713253
  C   4.22266879401480      2.68588077131738      1.96941714245232
  C   4.11704749022705      4.21538867563198      2.05234215340147
  O   3.15626554272646      4.89657316795012      2.28330207510341
  N   5.39255048887872      4.63601375324320      1.74297346198031
  H   5.50955862300906      3.67674565590475     -0.69019149131532
  H   7.21068107483080      1.38340224500189      0.12640949094231
  H   6.77899713587529      1.87209254049410     -1.50693018364746
  H   6.26203637003268     -1.04548826572128     -1.55174315748916
  H   4.92296071281900     -3.02383944186987     -1.84300949572891
  H   7.26197543349113      3.68128171210000      1.35689191767787
  H   5.89295912124134      2.75648296983394      3.42078175159344
  H   6.00701869035811      1.43421425350922      2.21825976579334
  H   3.41608112597864      2.15647000362758      2.46091731491181
  H   5.55009644025361      5.56223279795919      1.37703917266708
