29
Coordinates from ORCA-job 10880optt
  Br  1.85952240797821      0.08953065836837     -2.25652779790301
  C   2.85969196702062      0.37555646028375     -0.70145853537692
  C   2.58437808540452      1.38058297165784      0.14566605952030
  N   1.55061141338343      2.37372799639562      0.06884506660327
  C   1.35160841034007      2.68908476237300      1.51181737314625
  C   2.83133929948171      2.93516793133043      1.86190523315827
  C   3.40208517725822      1.66159029956837      1.30335749009578
  C   4.44829994627021      0.86953813912328      1.56387154203097
  N   4.69434306503743     -0.19984837126600      0.73536000757102
  C   3.97406955641166     -0.53881871511144     -0.41715377745316
  N   4.23370987921940     -1.54277476807865     -1.15964751697196
  C   3.15958074171849      4.04473662120234      0.83004253733415
  C   4.65510218085015      4.19535717365103      0.48125852138452
  N   4.75634647004593      5.64363105495189      0.31387918380689
  C   3.68118786774285      6.17443787731605      0.99755073889750
  N   2.75406047094447      5.37082344835135      1.32517582682581
  C   2.23975761924969      3.62075056165866     -0.36866071401880
  H   0.91010880007976      1.84240102250125      2.03356468278698
  H   0.73158774831705      3.57721121915386      1.61596404044083
  H   3.08897688378027      3.19893225787417      2.88387002205274
  H   5.13836204669919      1.00216551892979      2.38584241392242
  H   5.45559378389419     -0.81762113861548      0.96593702997624
  H   5.02793542389202     -2.07959178384823     -0.81921681328333
  H   4.93848261009904      3.65728018813063     -0.42208955659339
  H   5.28334538509785      3.84574786825286      1.30924084261486
  H   5.65371973695322      6.09508351201154      0.38970568419124
  H   3.64736219855966      7.23977454970390      1.19756227907842
  H   2.78699532925105      3.44150613294327     -1.29256360780303
  H   1.48583549501957      4.38803655118650     -0.53609825603486
