22
Coordinates from ORCA-job 10889optt
  Br  1.04745794316853     -0.29680635365403     -1.30970957703209
  C   2.71355138094368      0.06611753014703     -0.57101845720704
  C   3.22933438074190      1.27641024807267     -0.37764174390865
  N   2.71488235828981      2.58941251387189     -0.63644537736142
  C   4.03270382917738      3.29395565182944     -0.96196216107986
  C   4.41987256963789      2.94505576846940      0.47813931512379
  C   2.91053885181754      3.16646080527891      0.78663465830513
  C   2.47690582850505      4.53565383082828      0.94324749330414
  C   2.17296231940078      5.67646734144360      1.16289387857573
  C   1.80033336359405      7.06137221426669      1.41003360490609
  O   2.08148566404609      7.63973185245051      2.42183122976778
  N   4.42210193375914      1.47780472860151      0.34759847245534
  N   4.73001580176460      0.73200139593830      1.43229601021790
  N   4.40571378071938     -0.45849377933051      1.46038664887912
  S   3.71769849184608     -1.22318235576417      0.07750089379039
  O   4.82402629280140     -1.47608916040434     -0.78604294510478
  O   2.88894560589397     -2.27055801294222      0.55690792766649
  H   3.84264897197951      4.34743789172133     -1.13709946404462
  H   4.59843012740768      2.83517812878106     -1.76882475266046
  H   5.25150316980614      3.33608610006086      1.05241120662749
  H   2.48441229107066      2.53557086725680      1.56848226494322
  H   1.24147504362859      7.54841279307689      0.59638087383633
