25
Coordinates from ORCA-job 10890optt
  Br  1.15444893468532     -0.32114962756148      0.56181513865211
  C   2.82412795888805      0.41196285446048      0.07064777527223
  C   3.14524783734743      1.69110943163769      0.36468464297772
  N   2.21601922539325      2.64603337887581      0.78497417078936
  C   1.18226242439821      2.95572046891306     -0.26865566302983
  C   1.99528469021747      4.19748303044204     -0.69196680474419
  C   2.61615723011023      4.08979280361447      0.70543276330297
  C   2.95276544829795      3.86069512551947     -1.86048024061236
  N   4.23712731181782      4.52749945422797     -1.75663782321910
  C   5.36420295994552      3.99156738710992     -1.81125535037091
  O   5.73015767130306      2.65523082099699     -1.93376757667249
  C   5.02620305850418      1.71604115791241     -1.23793552870047
  C   4.82917194571519      0.47547270159560     -1.69446272685417
  S   3.79453605082930     -0.65949837059532     -0.89314908543013
  C   4.54202078218740      2.12235991527262      0.09769695013864
  O   5.19205691186790      2.83866093184845      0.82036030353244
  H   0.23527485217621      3.19770185994960      0.21155763627771
  H   1.03467842576789      2.16498758044495     -1.00326273066949
  H   1.44234657317346      5.11297937314647     -0.89538333819035
  H   2.02675206496845      4.63383937266662      1.44280708433615
  H   3.66557713970854      4.32123435318667      0.83539062630244
  H   2.49404728451610      4.23774265492441     -2.77718745457825
  H   3.02947231868296      2.77908992538161     -1.98323754348394
  H   6.26427508299103      4.59718668425102     -1.80326772907221
  H   5.28678581650703      0.12125673177842     -2.60871749595388
