20
Coordinates from ORCA-job 10895optt
  Br  1.92895829926960     -0.95171739104799     -0.11866151554166
  C   3.68141955754487     -0.32212277084877      0.05706925472346
  C   3.88698963684758      1.05173903533740      0.17604425447708
  N   5.20411534488383      1.41548291067017      0.35086652862250
  C   5.86696175782120      2.59660142563479      0.16145156353314
  C   7.25594919499634      2.30820352564096      0.10890223984003
  C   7.39513879014085      0.90467413724379      0.26962120023408
  C   6.11823107084322      0.46923124174901      0.44410140250369
  C   5.86589025328290     -0.84821862341332      0.17410903502928
  O   7.06807035068101     -1.43813989056866      0.00258894578401
  C   8.10130696339153     -0.37831898376008      0.03084689605598
  N   9.29682498709013     -0.65271945711067     -0.15962673163611
  N   4.65107083002776     -1.28842451063246     -0.00714542663569
  N   5.10249540462467      3.71424632937617     -0.03097700066801
  C   3.82722585649973      3.54141518279262     -0.07939837812132
  C   3.04131979603245      2.24677968868071      0.00192288603082
  O   1.83982094165823      2.26175059966304     -0.11837320594600
  H   8.01691518585388      3.05065029441195     -0.06458352596117
  H   9.45093271353676     -1.64548181479219     -0.32586121325508
  H   3.19436306497341      4.41036907097351     -0.23489720906903
