29
Coordinates from ORCA-job 10904optt
  Br  1.13478756415371      0.13566386091407     -0.18764362112670
  C   3.01155718437213      0.23801182122006     -0.08597837742875
  C   3.82649060752221     -0.87503991464937     -0.19761173427210
  N   3.47790596299369     -2.20059830066236     -0.29762445315422
  C   2.46236273681944     -2.77973774275693      0.60540260508382
  C   3.11358725572057     -4.06382862895532      1.13601578299230
  C   4.60885519492688     -3.75867518950830      1.06915134680973
  C   4.71869682907910     -3.02195808925571     -0.26064811066825
  C   5.88787654097235     -2.03182508667194     -0.42275672758178
  C   5.22347261053419     -0.69425557557036     -0.23556998214752
  C   5.73493800943692      0.56652902062908     -0.11797730635403
  N   4.95403837513486      1.65270503643691      0.02451183411298
  C   3.65291280702349      1.48283288273441      0.03014603668928
  O   2.85601677596478      2.56810667584302      0.15448982106950
  C   3.52844175937655      3.80283272830479      0.28931775663752
  C   2.51398932765179      4.85039862883901      0.43756163796689
  N   1.76052154909667      5.70315613231471      0.55849305393876
  H   1.52571708377047     -2.96545109086074      0.08334125181905
  H   2.26200662465023     -2.08013729990378      1.41972252940074
  H   2.87825832091075     -4.90406158201315      0.48019183191439
  H   2.76336497297895     -4.30979628651049      2.13676436279482
  H   5.23821650978552     -4.64656403770799      1.11593951235157
  H   4.89637509301212     -3.08329735429580      1.88093073373030
  H   4.69336777217584     -3.74133434724686     -1.08110492845216
  H   6.32923388824485     -2.11042065022951     -1.41705147412784
  H   6.67850521455177     -2.21809090978539      0.30586068435093
  H   6.80398979936405      0.74701492142234     -0.12655989306043
  H   4.14650687191596      4.01364730704000     -0.58470701035415
  H   4.17900675786008      3.80117307088564      1.16539283706533
