29
Coordinates from ORCA-job 10909optt
  Br  1.14986566946553      0.33933370960312      0.71649685834634
  C   2.93138903887669     -0.01772315122868      0.20822860021296
  C   3.50073635525840     -1.26173392829969      0.01263794645699
  N   2.88658634046067     -2.47028305051840      0.00817097156962
  C   1.43430873508355     -2.72380031774692      0.03344770746866
  C   1.30887772052446     -4.21744404859668     -0.27957456776147
  C   2.65364196126450     -4.78986001186430      0.15431160594403
  C   3.61589378793008     -3.71211658319137     -0.30800471247151
  C   4.98495374758317     -3.71581704967104      0.33029462265808
  C   5.76365510353801     -2.53814264179492     -0.22118672659337
  C   6.26177958905107     -2.79134763573365     -1.63870974785702
  O   6.22081999898699     -3.85829080746696     -2.18137807244674
  C   4.95995099440451     -1.25628310037789     -0.17599839262182
  N   5.65570715311091     -0.17783257534810     -0.27673635721767
  N   5.03830151314426      0.98733407842015     -0.21302599069362
  C   3.70085124242516      1.20403106481380      0.07588024772249
  O   3.28797381700728      2.34085401546512      0.18932585288023
  H   0.91768823155722     -2.10564464398420     -0.69769489065445
  H   1.03098296533611     -2.49247725350963      1.01771359128541
  H   1.17610091066364     -4.36787135667098     -1.35195958752380
  H   0.45877311819743     -4.66531771539155      0.23051091034066
  H   2.88022036682875     -5.75697509827341     -0.29130474564275
  H   2.70456593455575     -4.88381822824329      1.24224029484024
  H   3.73815687888724     -3.79333592637069     -1.39601974257576
  H   5.49919176697532     -4.64687013149619      0.09362069296838
  H   4.88164480000411     -3.63261773720267      1.41421876834754
  H   6.67110739595547     -2.35060977983647      0.36080838512812
  H   6.68999699739087     -1.90293130023430     -2.13790508482963
  H   5.62227786553280      1.80759120474982     -0.28640843728014
