25
Coordinates from ORCA-job 10919optt
  Br  1.63985848029154      0.44310120516485      1.57037824963087
  C   3.26492026390921      0.45201737679101      0.66692379833933
  C   4.19859724875032      1.39805116592001      0.75919491147416
  N   4.32789789438362      2.60337922139706      1.53190547091930
  C   5.77705617045394      2.50435062858789      1.87909219731100
  C   6.31565038889285      2.29065635562616      0.44246374538992
  C   5.70093715168275      3.52637069039122     -0.26244517269460
  C   4.39566799497871      3.74354085188549      0.58533607181535
  C   3.16738779760897      3.93980565620018     -0.25819944948600
  O   2.22226662007526      3.20521221094438     -0.32047407636773
  C   3.15059414845323      5.22091321881989     -1.10245362386807
  O   4.01835269102195      6.04144403855047     -1.03806326226707
  C   5.42978304437438      1.13980671530406      0.04897353894877
  N   5.66234590471584      0.14906344850045     -0.72374627631790
  C   4.60744470984737     -0.74729501784370     -0.91091025193054
  N   4.57044093836342     -1.69886993781698     -1.72493352850821
  O   3.46075452547762     -0.61532833435682     -0.10867450987930
  H   5.94775675275138      1.66379874618718      2.54814604323419
  H   6.12521930103118      3.42912331745061      2.33770134966001
  H   7.37925407673361      2.14238950180655      0.28962195490792
  H   5.49871669347761      3.33466306437634     -1.31633179988577
  H   6.35466282509816      4.39318126365916     -0.19688302856902
  H   4.51054652341206      4.65472063753807      1.17619455614846
  H   2.26384442508778      5.31599935123346     -1.75303358622407
  H   5.45004342912720     -1.72909537631703     -2.23278332178101
