29
Coordinates from ORCA-job 10912optt
  Br  1.09865330158534      0.11374511341684     -0.75052947325954
  C   2.91900902457168      0.00992151815135     -0.23428715384840
  C   3.53596715834587     -1.23356106026482     -0.04269638723931
  N   2.81109050697829     -2.42785323836986     -0.15870272292142
  C   1.81197633347796     -2.78121470695255      0.85448072931094
  C   1.30171681975952     -4.11345123213747      0.32859533029696
  C   2.55424914725537     -4.77928152462644     -0.27220315894665
  C   3.58140383351880     -3.63525887635657     -0.46591744855688
  C   4.80960419051427     -3.78035447770076      0.42366169883086
  C   5.64613830409856     -2.52137005245962      0.44568893566090
  O   6.82354020915332     -2.54349131431368      0.69907309177370
  C   4.91919665893587     -1.23810225770024      0.20408859831461
  C   5.63930261023726     -0.04871548236840      0.26695217853718
  C   5.00024265116147      1.16454844599406      0.11468316848399
  C   3.63325583156045      1.19063975378747     -0.13820599055449
  C   3.98099201292660     -3.54430481083409     -1.93273156607450
  O   5.09467844870791     -3.70126716302028     -2.34084910297494
  H   1.03997798896843     -2.02027716199814      0.92761876361077
  H   2.27900007239320     -2.89397263509802      1.84257833734061
  H   0.56033098120670     -3.92821482135566     -0.44834920013735
  H   0.83968931878699     -4.72060584784469      1.10492318073815
  H   2.32646620078729     -5.27911857334000     -1.21436214936379
  H   2.97644777717191     -5.52860106547762      0.39635848056912
  H   5.43930919985082     -4.61138042952097      0.10848295579866
  H   4.49346072474553     -3.97022096332507      1.45478854759518
  H   6.70305427217908     -0.11282850194692      0.45463451783860
  H   5.55319840580733      2.09207581838920      0.17352340694335
  H   3.12105076913950      2.13077004405605     -0.29131017871767
  H   3.13399724617459     -3.31125449678306     -2.60798738904862
