29
Coordinates from ORCA-job 10913optt
  Br  1.74792362950268      0.37465956240671     -2.17067180873513
  C   2.97855780404132      0.10699352621409     -0.74581431843506
  C   3.14830885473592     -1.11999714945242     -0.11734295040687
  N   2.60271159905425     -2.31384091858215     -0.58682876531979
  C   2.44053333607714     -2.62158346065742     -1.83488619924181
  C   3.51328746058521     -2.15755204524794      2.15309700165817
  C   3.26052053777319     -3.50550493733981      1.49675775066043
  C   2.19090941203312     -3.31889261330529      0.43013129308955
  C   4.58946134310563     -4.04645900521599      0.95714450495738
  C   5.35612538182739     -3.01676868174066      0.12034196709417
  O   5.36378218293155     -1.72339994929115      0.69139145218168
  C   4.07780794039508     -1.21483231811654      1.09604263780871
  N   4.38025556886637      0.04345945455810      1.72092606011535
  C   4.21251331777315      1.12189102036723      1.06158471362220
  C   3.56528968045856      1.24574789831889     -0.22090161396257
  C   3.39850155898595      2.53900910882789     -0.77710267849950
  N   3.29797826059475      3.60218863900037     -1.20673009316500
  H   2.84524637268269     -1.98394929321193     -2.60145413261242
  H   1.89886952597911     -3.52060678108850     -2.08420852316975
  H   2.59785663928364     -1.73258711114928      2.56799687204475
  H   4.25438700036086     -2.23120055450222      2.94874402173826
  H   2.84981457238495     -4.21644923855028      2.21764648033991
  H   1.26974560890255     -2.94652208914640      0.88106800154295
  H   1.98987436066322     -4.24677820515319     -0.10152305249116
  H   4.43511892858167     -4.95059417353282      0.36208866407493
  H   5.20059018590887     -4.32533297730533      1.81786322882736
  H   4.96922587954847     -2.97723531394679     -0.90201068774766
  H   6.40320729217175     -3.31002619460889      0.05040145732150
  H   4.52059576479091      2.04916380145175      1.54024871670939
