20
Coordinates from ORCA-job 10916optt
  Br  0.83136090475989      0.29495980520861     -0.03601106879599
  C   2.70922383206717      0.23794302754046     -0.03597523801748
  C   3.48672368851781      1.32888615257600     -0.03597323494634
  N   3.14135948357843      2.70141422182043     -0.03598515509905
  C   2.02403771413635      3.45708440824200     -0.03600598073625
  C   2.43022746351308      4.78523653993515     -0.03599127604415
  C   3.84528841700285      4.82662171530415     -0.03600798379731
  C   4.25978506829234      3.52063270699344     -0.03600210498474
  C   5.46214497826104      2.68838327284332     -0.03600921584611
  O   6.61853312223457      3.00600980694999     -0.03595954710653
  C   4.92989474217485      1.26831094367772     -0.03596777072935
  C   5.69357920534989      0.17064083469755     -0.03599656322216
  C   5.15132931787337     -1.18542090779952     -0.03604006055836
  O   5.79693836252564     -2.19474072456101     -0.03603821691871
  S   3.35136027479122     -1.37055223634628     -0.03597744067130
  C   1.53604805174852      5.89189147694006     -0.03600433492570
  N   0.80373269136492      6.77504989878774     -0.03601517822697
  H   1.03126379515431      3.04830096470990     -0.03600302568230
  H   4.46969659418139      5.70380595238808     -0.03602645714975
  H   6.77447229247232      0.25754214009215     -0.03601014654146
