28
Coordinates from ORCA-job 10911optt
  Br  6.27444527750661      1.29534329841959     -8.98754588866241
  C   5.47558487334743     -0.23990360613776     -8.29666243678633
  C   4.56062673512101     -0.24421168639378     -7.30438245869037
  N   4.18363231313610      1.01236665135889     -6.77572251081223
  C   2.83808804522827      1.12192813421302     -6.16901548577439
  C   3.04516874125567      0.93226194262057     -4.64497322996783
  C   4.51622610050403      0.60283311164988     -4.62259388583956
  C   5.11063940658290      1.47434457468491     -5.69984231538207
  C   5.02379490340397     -0.60706729759361     -4.41057417366107
  C   4.11056377394781     -1.79855416381373     -4.39504786524995
  N   3.32120855302894     -1.75419321098180     -5.65630001263558
  C   4.00778556748141     -1.57565720967187     -6.87648612936208
  N   4.01320833094926     -2.61138391442043     -7.64183689583191
  N   4.58719717300408     -2.50213435833559     -8.87931124398867
  S   6.06086305197084     -1.75331259077708     -8.96878469736961
  O   7.01118749658790     -2.31172897850097     -8.05996259673049
  O   6.38121699211289     -1.64085100113606    -10.35255929639829
  H   2.17089281814340      0.37749164039878     -6.59323725657674
  H   2.45369908277741      2.11338631955062     -6.40837139072468
  H   2.41056721789703      0.15629360708973     -4.23038471678935
  H   2.86306123984926      1.86307099699141     -4.10384195644188
  H   6.14501910994435      1.25366279250922     -5.94858943080249
  H   4.97142798743052      2.54765080905845     -5.56401654082711
  H   6.07526188948924     -0.78714559166208     -4.60862941644002
  H   3.39730844480695     -1.78768734275676     -3.57044712310145
  H   4.68901367433508     -2.72378736549250     -4.33341979207411
  H   2.77631041170799     -2.60435305908156     -5.75240096572411
  H   4.54600078844958     -3.36966250178948     -9.40206028735511
