27
Coordinates from ORCA-job 10914optt
  Br  0.92567304478450     -0.15259627837908     -0.58588582087695
  C   2.77870519321109     -0.10727707393096     -0.32935416702478
  C   3.43206915176492     -1.17905183726891      0.17074911343714
  N   2.78363445637803     -2.38270921685158      0.50189957425783
  C   2.78572002559102     -3.30115760206704     -0.65833851543943
  C   4.19898174593656     -3.94294326627455     -0.64967650441163
  C   4.77633688277733     -3.54714789088435      0.72773399166680
  C   3.52599135025045     -3.14222459368338      1.50981907899252
  C   5.64302481999998     -2.29861457895734      0.65597664367653
  N   4.81851934870711     -1.11443439955038      0.32910510873858
  C   5.40727681068882      0.07559856868636      0.04415947917902
  O   6.75825771412085      0.11497042982305      0.34607893742992
  C   7.60239954087184     -0.10668807830083     -0.69262490207561
  O   7.27182728543657     -0.53380750666746     -1.74946744971506
  N   4.86337569012512      1.12210522688263     -0.41069331751842
  C   3.49036880120730      1.11800514565622     -0.71696263339963
  O   2.95985203981141      2.06342473555806     -1.23886020213104
  H   2.54932108975067     -2.75453890456692     -1.56804288976911
  H   2.00899198857195     -4.04696929032317     -0.49288157754069
  H   4.81882677036496     -3.56101212490573     -1.46182209218527
  H   4.14316838900793     -5.02480711008299     -0.75879537694245
  H   5.35624720022380     -4.34538590232276      1.18752605038294
  H   3.72962984759260     -2.53333111693408      2.39043180570878
  H   2.91907570912865     -3.99862783336635      1.80332147008340
  H   6.40690110184211     -2.40382578665208     -0.11471289600664
  H   6.13210591627311     -2.12045914667993      1.61467656197401
  H   8.62271808558126      0.14350543204357     -0.38735947049074
