24
Coordinates from ORCA-job 10922optt
  Br  0.79315253122982      0.98992782888636      0.11811372093576
  C   2.56763902703011      0.41474898886530      0.02603149052260
  C   3.01618397520365     -0.84936518605257      0.07330808424196
  N   2.52110287719766     -2.17630018856156      0.16789685493588
  C   3.62834244468288     -3.17320223242856      0.41613118520361
  C   3.34005552157021     -4.28507996793545     -0.59099929342442
  C   1.81393668245880     -4.22146710004277     -0.70864585071655
  C   1.52169976799521     -2.73441688323388     -0.62756050257961
  N   0.61744312984050     -2.04485457986660     -1.17329062146918
  C   4.86352916531568     -2.31386001206371      0.27486584401960
  N   6.16048285978927     -2.36033367794717      0.34797112477566
  O   6.58573275280046     -1.02878625278343      0.20906117440027
  C   5.50515389528381     -0.23081227703509      0.07758958170338
  C   4.41923729406387     -1.00438103192754      0.09957974087572
  C   5.41260663315696      1.21490499687114     -0.02387779779640
  N   6.30562555971373      2.10307959897338     -0.06976160050451
  S   3.69286712544859      1.79356818467464     -0.07438339205511
  H   3.55221541960792     -3.54671884108556      1.44039057582826
  H   3.71842526500173     -5.24946860614802     -0.26022626246884
  H   3.79956622622369     -4.03764933202431     -1.54897978217170
  H   1.33674003823162     -4.72865992755151      0.13341905099811
  H   1.42425206062899     -4.64403541575233     -1.63187164082457
  H   -0.00117660079224     -2.63049783840564     -1.72648316638837
  H   7.23918634831705      1.69565975257488     -0.03727851804155
