23
Coordinates from ORCA-job 10928optt
  Br  1.06594058222407      0.05211538661711     -0.64839840138506
  C   2.86112107720447      0.15919714950730     -0.16478928684647
  C   3.49930034089689      1.29462110380297      0.17465864946798
  N   2.88664963494045      2.53911578109929      0.32863743497588
  C   1.74727218609412      2.81278546165447      1.07428393212172
  C   1.57675319566553      4.16039259132611      1.10633720020784
  C   2.63909571041032      4.76163388423483      0.36537151918207
  C   3.42345199523856      3.74821201277197     -0.08162821627772
  O   4.50320881677085      3.79578944273948     -0.90483934021188
  C   5.73848294917637      3.38218716238333     -0.43905835466230
  N   6.79524218424619      3.69356369759104     -1.02682508647928
  C   5.70838270754516      2.46842151733645      0.75605505669691
  C   4.93170053334092      1.21931932797615      0.43553364389901
  N   5.60066174229539      0.13200286287945      0.40004758711325
  O   4.94077794168314     -1.02539250478031      0.10753176183898
  C   3.60785468462782     -1.10759920443849     -0.20119665773216
  O   3.15400501672822     -2.17441860338495     -0.47209323291355
  H   1.19343511753145      2.01350479734277      1.53283064391269
  H   0.77853778128994      4.67539421616839      1.61309506993176
  H   2.79882281450006      5.80657240904112      0.16289795150647
  H   6.61318728798033      4.30523986382415     -1.82234388863233
  H   5.24343731842624      2.98221731390951      1.60233616512142
  H   6.72967838118345      2.20012433039783      1.00555584916476
