26
Coordinates from ORCA-job 10920optt
  Br  0.90994627659096     -0.12977338960401     -0.01707357671426
  C   2.76895330479905      0.05386858357399     -0.19646823242107
  C   3.35807102049713      1.27063303575054     -0.23863404229112
  N   2.81967669000346      2.58310237655821     -0.13571543491909
  C   3.18828361619121      3.04288058011089      1.24878011681455
  C   4.74013931497958      3.18490295735324      1.24034683668709
  C   5.05145236651831      2.80451670304428     -0.22395740792540
  C   3.81003436945014      3.34776049650230     -0.94169959933952
  N   4.72129029255832      1.36884506699642     -0.33553388182796
  C   5.62266035745873      0.32557340612651     -0.39459685403446
  O   6.82789663105126      0.54782862399163     -0.44503134204753
  C   4.97017329734534     -0.96535440231015     -0.39128269464554
  C   3.62127418328296     -1.08258351030505     -0.28668645281771
  C   6.41031495899802      3.11931225588225     -0.82739228950470
  O   6.50707003477935      3.53840155984910     -1.94794358312992
  C   7.66801754800389      2.97192309302871      0.02347026122142
  O   7.67981252353618      3.22240384528640      1.19353227213745
  H   2.81530041405715      2.32733256482911      1.97734578139545
  H   2.69653609063759      3.99912942447043      1.41402293721596
  H   5.24537043493565      2.52114032201664      1.93634955203194
  H   5.06359656034643      4.20286754998047      1.44949871470661
  H   3.77118222749476      3.07544318444546     -1.99322473055559
  H   3.66500116492461      4.41774657022785     -0.81197592481183
  H   5.61007436990884     -1.83258723654820     -0.46212990145677
  H   3.16454539075727     -2.06422288214308     -0.27522992985553
  H   8.56332656089372      2.70090922088601     -0.55677059391247
