24
Coordinates from ORCA-job 10938optt
  Br  1.11982637927577      0.76823847177009     -0.29455071039802
  C   2.90906716783183      0.27976732644123     -0.09239532756455
  C   3.31395277406416     -1.00311425785063      0.00800630389305
  N   2.73468641757388     -2.22924065737279     -0.01184603707672
  C   1.43039677980010     -2.87112267164366      0.07520634570118
  C   1.87673216859389     -4.37352906432732      0.14299632895556
  C   1.18483499451918     -5.13476023693153      1.27135644943889
  C   -0.26525733916384     -5.11912531386300      1.10088560914004
  C   -1.44785048848377     -5.07329681029274      0.91734216809541
  N   3.34225228061257     -4.39747701706417      0.33067142535572
  C   3.70193446973691     -3.20195358623543      0.21323314907414
  O   4.92712287907892     -2.63203396230536      0.28329097884690
  C   4.72289976589760     -1.27516282342169      0.17159813706857
  N   5.65032180622215     -0.41715025183645      0.22211369339895
  N   5.22548935201603      0.85408726801095      0.10284981929286
  C   3.92707320990665      1.33062841492338     -0.05112195945807
  O   3.71729109484239      2.51940801696278     -0.14149796198447
  H   0.81355988978632     -2.64622310192384     -0.79059257219506
  H   0.90158369971535     -2.55862051544893      0.97773371449505
  H   1.64642673253707     -4.87011034184573     -0.80148292566268
  H   1.45388622601070     -4.68005949772310      2.22825816188817
  H   1.55457627812049     -6.16070779687728      1.28541210953415
  H   -2.50106022631854     -5.04474751706671      0.76892697794585
  H   5.95125368782412      1.55430592592197      0.13260612221510
