27
Coordinates from ORCA-job 10935optt
  Br  1.07830012870563      0.05978959616905     -0.13476388364304
  C   2.95929661829071     -0.05303779464548     -0.02386969790847
  C   3.58307927796757     -1.28532878054898      0.07024229941361
  N   2.97171463397979     -2.57064037761835      0.10461366479029
  C   3.46131172659465     -3.31949427363067     -1.07627835953087
  C   5.00734662570933     -3.41699372267234     -1.07448301040805
  C   5.59056907799125     -2.63912362864931      0.14250482098533
  C   7.11328701950909     -2.61435868438380      0.19123380938193
  C   7.71367299886592     -3.93222718880417      0.00730725661076
  C   8.20489271608355     -5.00983511983002     -0.17004980288738
  C   4.95881452044234     -3.29379596307229      1.38050889154254
  O   5.58110029535126     -3.74779003470462      2.29606732760651
  C   3.43229936564894     -3.27066999655807      1.31075058690164
  C   4.97666947740231     -1.26095111884623      0.09804265749113
  N   5.68613797156072     -0.14256282463144      0.07491564428045
  C   4.97025215631650      0.97673986548973      0.00996183167796
  N   3.64660865300288      1.07266964111410     -0.04562716647323
  H   3.09442732093223     -2.81062340967236     -1.96577289591816
  H   3.00225328540661     -4.30712727814664     -1.04614451570417
  H   5.43418268715339     -2.99263809361765     -1.98424242546772
  H   5.34562918803452     -4.45075504431175     -1.01190202879501
  H   7.43153098777475     -2.19899908543917      1.14907720827051
  H   7.47494171767980     -1.93583750167523     -0.58382046995300
  H   8.64869527826819     -5.96624996044091     -0.31024547062587
  H   3.04450360452606     -2.78005367011545      2.20403755783173
  H   3.05801423258258     -4.29567734571936      1.30419635732621
  H   5.52146843421936      1.90957179496145     -0.00226018679563
