23
Coordinates from ORCA-job 10932optt
  Br  1.13608597121696      0.42876399684326      0.22851198821134
  C   3.00147250501603      0.27618537060579      0.02907269899192
  C   3.76880200629435      1.37917805724547     -0.08059761744296
  N   3.37513592349125      2.73284398222165     -0.12393660381595
  C   4.50074981099540      3.37275993854768     -0.83718070820080
  C   5.68904053940207      2.67159323921350     -0.18263678414443
  C   5.76327000675973      3.12630214060119      1.26257990352006
  C   4.63752349144166      3.41630730363261      1.90434353170306
  C   3.28411568429512      3.29042222472306      1.24598720198909
  N   5.14907939653559      1.28531769550833     -0.26813974936842
  S   5.98116233315191     -0.02293674996116      0.30422730213913
  O   6.08465283959975      0.02042642731173      1.73015202077362
  O   7.17665827060603     -0.14865523829040     -0.46900132330248
  C   4.75714911621268     -1.22860367997121     -0.12430225988283
  N   3.51176306874183     -0.98377350508397     -0.11978125005805
  H   4.49281879077918      4.44700634805340     -0.67527243401100
  H   4.43220803089138      3.14640014189505     -1.90007812617541
  H   6.63136161867056      2.73207602909100     -0.71977430061717
  H   6.72723850470877      3.17860803789105      1.75076238875767
  H   4.65836104705009      3.74557306142641      2.93663068489870
  H   2.79585973147209      4.26595299929846      1.17742444522023
  H   2.62679093728323      2.64626258461335      1.83270154926598
  H   5.14570037538431     -2.22501040541627     -0.31069255845129
