25
Coordinates from ORCA-job 10939optt
  Br  7.77061384215307     -1.51754875179300     -1.32178361351326
  C   5.96061822571757     -1.38776981082148     -1.82919015493172
  C   5.62401668803063     -0.93255965880561     -3.06265575085876
  N   6.57029482858298     -0.44348998547929     -3.95847485830464
  C   6.14557746801596     -0.34488902512671     -5.37891428473875
  C   5.74010683460848      1.12584219560212     -5.16244003201687
  C   4.30127895078186      1.19280802207675     -4.75245539357056
  C   3.66975313085100      0.29254452029466     -4.00566418467834
  N   4.25615170860718     -0.84919477033823     -3.39750059247770
  S   3.28156117983782     -2.03669281429726     -2.73833682322158
  O   1.92080113280155     -1.62686913157588     -2.87689202972077
  O   3.72635183032676     -3.29012930321434     -3.24716163484621
  C   3.83657588100958     -1.86632730656336     -1.06952961404919
  N   5.05761143983992     -1.63053816787532     -0.82513481119659
  C   6.72318644566179      1.06603192438671     -3.95673630504940
  C   6.41825675023804      1.75961725445988     -2.72432469810735
  C   6.15963030985332      2.31269604553002     -1.69491342786937
  H   5.36305145748415     -1.03886512467121     -5.67643752833548
  H   7.02170059659785     -0.46442221408364     -6.01496919586513
  H   5.97768580867724      1.84815383003544     -5.93991777533733
  H   3.70623916916122      2.02459062681460     -5.10286662553507
  H   2.61211958161014      0.36751911850826     -3.79810984269479
  H   3.09119787942373     -1.96792502385448     -0.28760487998309
  H   7.74340467834550      1.28511477007619     -4.27421953522478
  H   5.94321418178260      2.80530278071516     -0.77676640787322
