29
Coordinates from ORCA-job 10941optt
  Br  1.20802750726739     -0.25209433880693      0.81436315245311
  C   2.88198960749680     -0.31354761638726     -0.02136914061602
  C   3.51196618836466      0.83007815485223     -0.42244172495166
  N   3.04910071509242      2.12268802375331     -0.24568086726550
  C   3.26652838850634      3.04319908581772     -1.36088907328870
  C   4.72674503699544      3.03891328109200     -1.87356100407885
  C   5.50961439285083      1.99157891738476     -1.09521069494045
  C   5.85183177001706      2.43000506883413      0.36211705520481
  N   5.22848866311937      3.64886508187253      0.83954714504655
  C   3.95515538961646      3.80142885430701      1.34569025775490
  N   3.52755126177901      4.82435014918374      1.96798637513351
  C   2.96564159701706      2.67466815223855      1.09848105811548
  N   4.72272767148348      0.75550551843939     -1.05346205762900
  N   5.34355811545880     -0.38724958570993     -1.34342198964103
  C   4.76345371556342     -1.48797010051855     -1.00750267529485
  C   3.48645188623997     -1.60443954565378     -0.28463443019148
  O   3.01873123233478     -2.68533538256025      0.02250815311009
  H   2.97179133780178      4.03367969983666     -1.01881742650312
  H   2.58982291103676      2.76464691119157     -2.16953796658366
  H   5.19603815658066      4.01477968999786     -1.75492966664164
  H   4.75201361625171      2.77996696437678     -2.93141698615930
  H   6.42561757534346      1.71686623108047     -1.61200709762506
  H   6.92632880094709      2.59484918117853      0.42373002578377
  H   5.63045973863864      1.59226552623196      1.02988967632539
  H   5.85169416237506      4.41400955265647      1.03774069491808
  H   4.26026936975424      5.51323476071352      2.13688049029479
  H   1.97682489062291      3.08362157738528      1.30266265760804
  H   3.14178944991456      1.87118289405185      1.81656682916242
  H   5.27678685152974     -2.40574670683967     -1.26628076950060
