28
Coordinates from ORCA-job 10947optt
  Br  1.01700711131492     -0.76366040313970      0.40593184784637
  C   2.87291755789174     -0.49440465736713      0.27657744236304
  C   3.72364402674174     -1.50828813047725     -0.08089163364177
  N   3.26141437003062     -2.79377884767491     -0.40721798327635
  C   4.34220734203706     -3.53257390217653     -1.02033431109793
  C   5.41428343150666     -3.50326961057203      0.06981375457411
  C   6.16422947781636     -2.22661158507259     -0.20375163853813
  N   5.06668434803735     -1.20251114674248     -0.18698509879669
  C   5.55347493568487      0.13279049300773     -0.08458860002411
  O   6.73375030396907      0.32007083617782     -0.26659249662728
  N   4.65533054141338      1.11213248059710      0.25887333554566
  C   3.41091214763539      0.79758279370527      0.44399926627598
  C   5.79540615729784     -4.90758826184721      0.43102575886604
  O   4.60243528463227     -5.45840746603122      1.03847989469700
  C   3.28469938955345     -5.08841363705597      0.81792636706948
  N   2.39902194665467     -5.98097076746060      0.87884786734292
  C   2.72386404298048     -3.63707927702847      0.70537126811779
  H   4.67590906503919     -3.03633504246023     -1.93191712904538
  H   3.99481093756132     -4.52587319806037     -1.29616414526520
  H   4.91718530144335     -3.23132318353472      1.00247066039475
  H   6.67921066535214     -2.18062722754647     -1.16239899460017
  H   6.86714059281954     -1.93609903947850      0.57485115903775
  H   2.73556516361456      1.60226725683418      0.72356501519514
  H   6.56737228005043     -4.98351134749686      1.19455118590672
  H   6.06631782148686     -5.53118982607366     -0.42315058979094
  H   2.82571000072231     -6.89366698952193      1.03925808625815
  H   2.86946661115878     -3.13645033011665      1.66578083649735
  H   1.65902914555360     -3.78420998338658      0.56266887471573
