23
Coordinates from ORCA-job 10940optt
  Br  1.36701634075365      0.35140865758400      0.26874636246034
  C   3.20298656777117     -0.01192936563672      0.19536242609446
  C   3.67651263309392     -1.28034070251520      0.12497542215400
  N   5.03343797254279     -1.51651193616501      0.07338940155349
  C   5.29437898506682     -2.93296508826020      0.00741725800894
  C   6.44632621148472     -3.58449021657297     -0.04764208624219
  C   7.78151608471817     -3.00405348777768     -0.05540817262722
  C   8.07222564997213     -1.69873305948770     -0.00699478629783
  N   7.26467749810362     -0.57389820408198      0.05997237058181
  C   5.99540730766849     -0.47094339834870      0.09515621656423
  N   5.46039403574182      0.80466519023053      0.16292288716237
  C   4.18645776060894      1.01072510553050      0.20879318016710
  N   4.01574670474609     -3.50325141877490      0.01864262089581
  C   3.41156696051662     -4.71772237605595     -0.00927161084263
  N   2.10602966682221     -4.58773123571735      0.03954374685084
  C   1.83826745318893     -3.25005994754768      0.10226813972799
  C   3.02274592011497     -2.55730758162930      0.09100915063307
  H   6.36608449668317     -4.66361337115686     -0.09015617180054
  H   8.60756859095153     -3.69903464909636     -0.10514515172976
  H   9.12329580907596     -1.43244763575206     -0.02058898695880
  H   3.85864847933261      2.04622087376755      0.25995084926983
  H   3.95501689173287     -5.64649349844973     -0.06245088846650
  H   0.83469197930876     -2.86549265408621      0.15250782284119
