27
Coordinates from ORCA-job 10942optt
  Br  0.92269848455279     -0.23048778146376     -0.57017016486218
  C   2.77781585451085     -0.14541009125602     -0.30330138267916
  C   3.42253822133832      1.04032501156734     -0.01960426858668
  N   2.76019864178775      2.30818002030391      0.08373484052267
  C   3.33382510749530      3.20934466099938     -0.93599717743528
  C   4.86713411672804      3.37311399499171     -0.75092340148463
  C   5.31106796400800      2.48532448352297      0.43946743231513
  C   4.53491484989443      3.02149007748956      1.63303029329676
  O   5.03152154068553      3.53431854329544      2.59735879797525
  C   3.03102348477879      2.87016143249369      1.41072981045541
  C   4.82122909377572      1.08458239264230      0.18135305383060
  C   5.60756507705703     -0.04491455323143      0.12301187416744
  C   4.94055126620866     -1.23398486230029     -0.16550655103624
  C   3.55306217063861     -1.30831323168771     -0.38139343943297
  N   3.17471164999029     -2.60689565722299     -0.64584131576180
  C   4.27677482710923     -3.29088852670067     -0.59567937235556
  N   5.37663793689874     -2.53083952307251     -0.31044372115479
  H   2.82417955492391      4.16932958896996     -0.84907796780159
  H   3.09577798987721      2.79563347525045     -1.91413939635983
  H   5.13276023699851      4.41118943403382     -0.54751858687777
  H   5.40889154422880      3.06111520285793     -1.64349134209022
  H   6.38084986481948      2.53991279818420      0.62893345388929
  H   2.55563549954121      3.84839188588462      1.50684620607037
  H   2.61335237668755      2.21995431118577      2.18103844910139
  H   6.67627328795594     -0.00141715809130      0.29031065029851
  H   4.35581882088368     -4.35501558897595     -0.75714053466474
  H   6.32219053662558     -2.86020033967042     -0.22258623933938
