23
Coordinates from ORCA-job 10953optt
  Br  1.06218161180664      0.34276918387203     -0.02223837925582
  C   2.91820419080937      0.08815216044590     -0.03231861083440
  C   3.53383208301839     -1.10804372245573     -0.03516592871699
  N   3.12801707126647     -2.44659673010468     -0.03359531946377
  C   1.88901390714811     -3.06256938155517     -0.03270241384596
  C   1.83046649520262     -4.39793137358001     -0.03253008627025
  C   3.04716487190658     -5.22867426347150     -0.03281308191519
  N   3.06877016889149     -6.50115559472005     -0.03065844411018
  N   4.27272162712995     -4.54020083249804     -0.03620880740602
  C   4.24440684771074     -3.27252749229268     -0.03663788709900
  N   5.34875901285586     -2.44071254422589     -0.04093239419149
  C   4.97581604807304     -1.12543629825960     -0.04103614310326
  C   5.71807846367859      0.00202462324573     -0.04605604613217
  Br  7.58885690222532     -0.10293130402723     -0.05710743606388
  C   5.07108102969279      1.30629173628828     -0.04350244121035
  N   5.57730178065734      2.47317613654699     -0.04655334024508
  N   3.66976772310319      1.22609040348192     -0.03625433585964
  H   1.02464084197281     -2.41868125331917     -0.03267127745649
  H   0.86644049122785     -4.88600582798848     -0.03224126294548
  H   2.12082701558475     -6.87028655731048     -0.02851670589139
  H   6.29389586426944     -2.78932584205251     -0.04380352946455
  H   6.59121242904076      2.44152911389444     -0.05130459130639
  H   3.20854352272788      2.12504566008595     -0.03415153721226
