19
Coordinates from ORCA-job 10954optt
  Br  1.07951635127008      0.10450729198562     -0.78364617151496
  C   2.87063465654869      0.16803847008444     -0.28901339901164
  C   3.60895196048467      1.26192381907645     -0.07258239377758
  N   3.33846673042825      2.63197391422830     -0.08612915569507
  C   4.57676498272598      3.30750373393979     -0.07075857250626
  C   4.62358771637018      4.64235992390289     -0.06602905780833
  C   3.36849267213103      5.37286246048713     -0.05886794026499
  N   3.14990887358975      6.59672928897347     -0.23143252399217
  O   2.22894422611890      4.61714706783679      0.22383693184454
  C   2.17081791459570      3.28044914530362      0.31496384996473
  O   1.19878338532092      2.71709597968443      0.70540345330863
  N   5.61610319134224      2.39547585026565     -0.03327707897290
  C   5.06762897835806      1.23986716467597      0.00135931449993
  O   5.81239802786239      0.13081238672796      0.05184302027690
  C   5.30581354458751     -1.14128910617954      0.06211979500472
  O   6.03233666277567     -2.06026845468273      0.21646738887486
  S   3.58022450360298     -1.43137878814487     -0.21188415319489
  H   5.56259832605847      5.17157091842850     -0.06682919423712
  H   4.01702729582846      7.09361893340611     -0.41454411279842
