21
Coordinates from ORCA-job 10950optt
  Br  1.21890401821885     -0.16768718220656      0.05252375276990
  C   3.07622449186136      0.07527349305999      0.05428231689541
  C   3.73793044619974      1.25880260582248      0.05495155950612
  N   5.12842293045313      1.25266504303210      0.05579453803837
  C   5.83748016207445      2.47829680492324      0.05629879408893
  C   7.26448310719766      2.37339867208223      0.05667081095228
  C   7.85010470604394      1.15479554876231      0.05662177557546
  N   7.14099848069926     -0.02010902914746      0.05639173515089
  C   5.85479983365480      0.03991751021514      0.05596019805685
  N   5.15095897495935     -1.13728336674526      0.05574879322826
  C   3.86817817563415     -1.11870518750932      0.05490753298865
  C   9.27865151681400      1.03426432972902      0.05681173701962
  C   10.47305794672990      0.94978416821497      0.05629022059988
  N   5.26955449641882      3.62803952641998      0.05637205192353
  N   3.90719572804917      3.64733965541769      0.05594003614331
  C   3.05826167842831      2.59749024800226      0.05505577255381
  O   1.85634446457343      2.72334368415609      0.05471994275224
  H   7.83029838175050      3.29172873863932      0.05691578913773
  H   3.35116420333680     -2.07422759961104      0.05468370339266
  H   11.53375803375375      0.86574727122349      0.05590762655995
  H   3.49222822314858      4.56712506551931      0.05615131266614
