29
Coordinates from ORCA-job 10952optt
  Br  1.40966633227907     -1.80265535155919     -0.66862951779737
  C   3.13870045952998     -1.04388081292689     -0.61414979600953
  C   4.20329883833395     -1.71231534693847     -0.08210068961352
  N   4.24217279068842     -3.02264247049538      0.34678419599632
  C   5.38140280396680     -3.18918359044386      1.25640514915616
  C   6.40002140462410     -2.11009116945593      0.83386466575391
  C   7.50918792596984     -2.62648425803560     -0.12935773669641
  N   7.13562758319733     -3.79964055741662     -0.90127660695299
  C   5.96839474029799     -3.76547842019631     -1.67625534899568
  N   5.68593833141826     -2.88721608158772     -2.54179510384978
  C   4.93263233346096     -4.80361044711298     -1.31477408693179
  C   3.79753388841194     -4.12260487822682     -0.50472798528727
  C   5.48596200640818     -1.09200894464493      0.18771151533312
  C   5.79234532315087      0.16549843601584     -0.14446573864437
  S   4.72066419968831      1.23627253063290     -0.95428605004623
  C   3.18614892902162      0.31377427615523     -1.12370100850651
  O   2.27374385415839      0.90569027867144     -1.64122901950215
  H   5.76556285967340     -4.20616626147487      1.20120219064633
  H   5.05397704314488     -3.01350393589916      2.28315877537763
  H   6.88813506073913     -1.67481144321597      1.70643154171402
  H   8.39442030222991     -2.89815279428809      0.44562385525176
  H   7.80146351940857     -1.81339726525817     -0.79641819936867
  H   7.20303592168521     -4.64172118588061     -0.35183525327291
  H   6.43550225022434     -2.20472834006677     -2.65438558404256
  H   5.38515699453519     -5.62012807315827     -0.74917481316403
  H   4.49343651491498     -5.22544178358970     -2.21767196683154
  H   3.26871604440805     -4.86663504754650      0.09353606619505
  H   3.09048058377690     -3.70986068571656     -1.21455199633397
  H   6.76967116065330      0.58612362366001      0.06406854642299
