22
Coordinates from ORCA-job 10959optt
  Br  1.62378112284564      1.33960560193557     -1.31237679306346
  C   3.45430379648941      1.04638516359435     -1.10768282067164
  C   4.29773634819190      1.89046538932629     -0.51795898146160
  N   5.63709634410020      1.38320398750801     -0.46516190528563
  C   6.71407403043608      1.93142317161123      0.25236224466378
  C   7.55352225108884      0.98609607502084      0.72388181796767
  C   7.02337427727949     -0.33447325517604      0.36601541897108
  O   7.46719475797307     -1.43199062980519      0.55028315990062
  C   5.73307801488225     -0.00675270414600     -0.39405763880650
  N   4.89488645891616     -0.81376474358941     -0.88098195927094
  O   3.85842335914807     -0.15754131802315     -1.60357756398171
  C   6.56594582145311      3.38474271824004      0.36149983268140
  C   6.15861830383909      4.02346728314452     -0.73547868417258
  C   4.99065147627578      4.92714074651458     -0.71985928592894
  N   3.89124404728367      4.42847942921448     -0.32341668541300
  C   3.85242034509202      3.11532093448712      0.24942532611325
  N   3.36985835183755      2.92369633282554      1.39716946054837
  H   8.48481109734117      1.15254073093564      1.23714592851524
  H   6.41981598427538      3.80211694445111      1.35137797375478
  H   6.34094011455241      3.56562662495496     -1.70621949913589
  H   4.98506665188664      5.92855170871909     -1.14166906566174
  H   3.06015704481201      3.80965980825641      1.80327971973746
