22
Coordinates from ORCA-job 10966optt
  Br  1.93924154953933     -1.41583094673861      1.76742934420764
  C   3.32289577803990     -0.72169005844626      0.70073637704509
  C   3.25021964811716      0.47940934690086      0.08924474532762
  N   2.31418029768613      1.46488435896660     -0.01008782027489
  C   1.13193956845156      1.83079757117081      0.64366627256770
  C   0.26581346453810      2.42936757124097     -0.18395565549259
  C   0.07691218968055      3.88944675414236      0.01588255327786
  O   -0.79383038769937      4.57355619722559      0.45689386312922
  N   1.28384489367242      4.44678027159377     -0.49355729588065
  C   2.44978381722070      3.81536575855220     -0.88911079360135
  C   2.91157188217475      2.53890228858344     -0.72817419143309
  N   4.16505831348097      2.16416196739690     -1.15220001393169
  C   4.37019605326914      0.96803561738669     -0.69810567442161
  C   5.58051452969324      0.10924408836281     -0.88183071624665
  O   6.50998240696328      0.45708098166853     -1.55825974188647
  N   5.55955525434135     -1.12931355360852     -0.21678880645270
  C   4.53710763000310     -1.47529245056108      0.48750201466822
  H   1.15471046178786      1.93810667653611      1.72222053397092
  H   0.40459118233306      2.19872302166918     -1.23655759669374
  H   1.25234460302285      5.44969815972194     -0.62173808790935
  H   3.14774566250923      4.46088926922655     -1.40512895090469
  H   4.58762120117465     -2.44632289099083      0.97791964093520
