21
Coordinates from ORCA-job 10965optt
  Br  1.03313116369048      0.21801297137691     -0.87770588675962
  C   2.81086560892296     -0.03479480904641     -0.32676985011586
  C   3.44275275167902     -1.21422846485363     -0.10612774318561
  N   2.86136254550578     -2.49611714202219     -0.04102734056503
  C   1.52361378287667     -2.70148006895208      0.31292620686746
  C   0.96672469738417     -3.90973233240095      0.23343307064535
  C   1.73882769247966     -5.04860048073349     -0.27941752007428
  O   1.25507137922830     -6.11002302493981     -0.57186276012399
  N   3.12541051605458     -4.82490751602872     -0.36217259317399
  C   3.59058710931655     -3.65772919789106     -0.24147651713378
  O   4.94616785753084     -3.54684272410642     -0.26428512011150
  C   5.54496448386288     -2.37696385628143     -0.03210088224830
  C   4.88467982545329     -1.21155977639907      0.05982369758981
  N   5.63751990695916     -0.05996940040799      0.19978880607010
  C   5.03283124541243      1.05555884845493      0.10126391504412
  C   3.58711762011657      1.21392053593962     -0.21247028301922
  O   3.11303962361021      2.31378988332894     -0.37381415813868
  H   1.00718652960890     -1.83158610424337      0.67807415698557
  H   -0.06006735319823     -4.06641467707915      0.52787156833466
  H   6.62129934596262     -2.44741542919918      0.02908234240477
  H   5.59291366754313      1.98008276548457      0.20696689070805
