22
Coordinates from ORCA-job 10974optt
  Br  1.51292324143188      0.61675889329217     -1.00950964953997
  C   3.27672214881551      0.47867836447263     -0.42419392706481
  C   4.22569131400576      1.36457064688831     -0.72014056767117
  N   4.12607467478494      2.61612275426419     -1.43597992510234
  C   5.54214974931249      2.70210328511520     -1.95259296285363
  C   6.23643434111128      2.47871073105871     -0.58707012565845
  N   5.53804523242913      1.21622385206753     -0.26314975750837
  C   5.80187379903742      0.41373617604007      0.83917010180037
  N   6.74557597481103      0.49581190532826      1.65976087989767
  O   4.91940573980349     -0.61474701611625      0.97074828126391
  C   3.65580884955589     -0.67134211337200      0.41286872242873
  O   2.97712600993087     -1.61473591387037      0.65080469548583
  C   5.48347375385675      3.55957970559596      0.16301324050532
  C   4.23865935914018      3.58929138924693     -0.34965957238085
  C   3.54491309710453      4.48288512940880      0.49741613671858
  N   4.35610049162484      4.94390559825150      1.41544339222695
  O   5.59536133882887      4.34129410151748      1.21773928512909
  H   5.71536807223811      3.68214554352141     -2.38400511788923
  H   5.74042927056421      1.90396851881018     -2.66471517835233
  H   7.31599096042527      2.40183224889054     -0.54526784771986
  H   7.35502095124900      1.28701832158744      1.48415583746672
  H   2.52285162993848      4.82518787800128      0.48816405881782
