24
Coordinates from ORCA-job 10978optt
  Br  1.24502490440977     -0.00817803551555     -0.50870985911395
  C   2.97821326702082     -0.11743207397198      0.18618434215392
  C   3.67070444175946      1.01539755962645      0.45571323195920
  N   4.93863788014656      0.93925651932726      0.99788166502883
  C   5.86456113457869      2.03763455019504      0.66626050698260
  C   7.10494867356633      1.28357057877571      0.07219310526541
  N   6.89169678825596     -0.11063204449130      0.52853604534091
  C   7.25183228237107     -1.31526471321598     -0.13296577542677
  O   8.30868786729634     -1.56780815309883     -0.64531625614790
  N   6.12421525833204     -2.12299153969820     -0.03616688655782
  C   5.02898649290505     -1.41541050497799      0.50505984102372
  C   5.56680646474692     -0.23757208315881      0.84850501742332
  C   3.59120471046692     -1.48994720717910      0.26005028109609
  N   2.89556061510929     -2.51716355845940     -0.02898173518659
  C   4.99416496752327      2.94916090211387     -0.20469680323164
  C   3.54301421458069      2.42326239809588     -0.05045210461603
  O   2.55884898711377      3.01478891409186     -0.36852195406870
  H   6.16002922489309      2.54490469777491      1.58440597812538
  H   8.04203389692612      1.68464045891580      0.44757153176988
  H   7.11552098572879      1.31119428367186     -1.01993829249107
  H   6.14202050598373     -3.07973908313445     -0.34478169148881
  H   3.45394725481481     -3.36692865486950      0.01906716096204
  H   5.24242281381802      2.85165550621136     -1.26490781969179
  H   5.04291636765246      4.00260128297109      0.05901047088979
