19
Coordinates from ORCA-job 10970optt
  Br  1.15285472454716     -0.07682550182793     -0.35958670807588
  C   2.95204499854555     -0.02765308106729      0.16239078963877
  C   3.51295912044285     -1.10126296920992      0.76696214704411
  N   4.89646380780018     -0.91288372594969      1.00430067778715
  C   5.67919223793430     -0.20074485776106      0.09150421574423
  C   4.98360834347948      0.98779707385950     -0.35430761337706
  N   3.69111601302460      1.05302524572311     -0.25747577736068
  N   6.68164252546188     -0.92273783339939     -0.37901179487045
  C   6.51779945505315     -2.18894516883678      0.19573942966202
  C   5.49583454611348     -2.10494480504198      1.07560534203641
  N   4.56534809800479     -3.11711632772027      1.07495261308326
  C   3.32210842841163     -2.58034412482928      0.70694095682792
  C   2.87503064312470     -3.47423464100273     -0.25141872421520
  N   3.90433389062358     -4.32786648945324     -0.62617766989270
  C   4.93651353179090     -4.02716728256374      0.12061183359891
  C   6.40628535009829     -3.63090096673403     -0.35498945847268
  O   7.09253549317382     -4.23111452732145     -1.10555012866628
  H   5.50305082099877      1.79719163604924     -0.85240696553164
  H   1.92827797137084     -3.49827165291303     -0.76408316496020
