17
Coordinates from ORCA-job 1098optt
  C   3.29972175064587     -0.96048324304842      1.18590114775290
  C   2.73012188654392     -0.22660691419415     -0.02174955240869
  C   2.97141061528802      1.28582295975635      0.04772212176586
  C   4.42229493962081      1.61926592461913     -0.01763399853803
  N   5.00772108828857      2.23814146343436      0.92220403659097
  N   6.37186779084302      2.43893607985540      0.65203731289638
  C   6.95504134202789      3.06301773750859      1.58431438531790
  H   3.09108554441734     -2.02908230066106      1.13322455894021
  H   2.86599217597053     -0.57474586680546      2.11044310654656
  H   4.38084057292795     -0.83006458808279      1.25397173142706
  H   1.65536286747951     -0.40359505052715     -0.09230511469138
  H   3.17032290502581     -0.62209940714071     -0.94150333217730
  H   2.55787311999974      1.69736062622212      0.96966323573660
  H   2.47021285677300      1.77066902120979     -0.79534655471864
  H   4.99351568416604      1.30626019118696     -0.89619075802645
  H   8.01361642941464      3.26914511174035      1.47499216995156
  H   6.42199843056732      3.39005825492669      2.47625550363448
