22
Coordinates from ORCA-job 10985optt
  Br  1.10798950443597      1.00250895822499      1.33846791592004
  C   2.93989482993295      0.83423792116031      0.93614859001910
  C   3.64103725305516      1.88134961736029      0.42418896297997
  N   4.95262131354280      1.57197693921599      0.20516233106731
  C   5.62383078009453      0.40055847117014      0.38902643748005
  C   6.91475655342377      0.72400208662198     -0.05650813065753
  N   6.97261033528053      2.01389318356752     -0.48054203293340
  C   5.75462566681191      2.51286843041528     -0.30532563195260
  C   4.88139387456114      3.66606572555252     -0.53737401440238
  C   5.11481796937654      4.77102082192072     -1.25225202767495
  O   4.08342015581924      5.62164722744077     -1.59466710602547
  C   3.50189824260107      6.16511046417344     -0.45756882723574
  N   2.74993137690000      5.54377441709567      0.33022573427179
  C   2.57316723883226      4.17648185445199      0.32912060085303
  C   3.55617873940890      3.29879699484934      0.02864925495712
  C   4.77249185807830     -0.60649990272415      0.92538948797513
  N   3.51156442929758     -0.37792999474168      1.17842616960637
  H   7.78381018110611      0.08864151858376     -0.08151167862425
  H   6.08146345735265      5.03715567575730     -1.65821142816764
  H   3.72233815994557      7.21820972763632     -0.31780648223609
  H   1.64555652344394      3.82991236528484      0.76473962956103
  H   5.14760155669905     -1.59978250301738      1.14022224521910
