21
Coordinates from ORCA-job 10980optt
  Br  1.27965397347306      0.54035751801249     -0.29466881730681
  C   3.07813330717353      0.09559777099348     -0.40333718949277
  C   3.67175083914300     -1.08270913773237     -0.18791818173924
  N   5.08559828526939     -1.10131720874482     -0.28244099612261
  C   5.78632540722448     -2.29174182411994     -0.30816842012409
  C   5.13533005773239     -3.46733050560119     -0.26664158425738
  N   3.76973852994309     -3.49617133369699     -0.11182742774064
  C   2.99178518602228     -2.36368654096295      0.13234319423012
  N   1.79857475130705     -2.39143463106787      0.55098445130147
  C   7.22237169459357     -2.21396530289407     -0.25568593713341
  N   7.90158242495963     -1.17220694455440      0.04156499963685
  C   7.20987570530074      0.01694697573345      0.36687907110576
  O   7.77957870123701      0.92371215359258      0.90624516330079
  C   5.77510596949648      0.10462096243042     -0.03642921458135
  C   5.08891901929954      1.23313644990756     -0.23497105145128
  Br  5.63018620152217      2.96923946843818      0.12381982281539
  O   3.83541336373001      1.17741387790440     -0.80428816496455
  H   5.65720180938451     -4.40997920116975     -0.31803165645302
  H   3.31759716843383     -4.38450242550052      0.03221841000190
  H   1.46579158587899     -3.34050533504324      0.71278596614186
  H   7.76248601887519     -3.13747478592440     -0.45843243716699
