24
Coordinates from ORCA-job 10995optt
  Br  0.91100839932259      0.36601228569876      0.01743753534753
  C   2.77417879086064      0.14988454736203     -0.01405973253356
  C   3.37637724942145     -1.07307429671860     -0.03163755053469
  N   2.91416229125425     -2.35351022025686     -0.02040250358676
  C   1.67200987269062     -3.10064948978866     -0.12084926534373
  C   2.17735283874101     -4.52410718757813      0.20667314092855
  N   3.59599833432098     -4.47715272553658     -0.17094316054434
  C   4.02232916791865     -3.18457322134544     -0.08115625038155
  N   5.16604413691764     -2.59242576409787     -0.08335999303025
  C   4.79941929074553     -1.23954407717773     -0.05198037545252
  C   5.56033231558449     -0.12192489190252     -0.04472705565910
  N   6.92949914584066     -0.12137040710987     -0.05740660605179
  C   7.74874271495303      0.99058547139351     -0.05719643871218
  O   8.94608908783644      0.90133678331020     -0.06407943326015
  O   4.99284831588286      1.08237275497357     -0.02558959282083
  C   3.59235340845452      1.32711648250745     -0.01264168626096
  O   3.25821626149833      2.47290886306670      0.00016940240174
  H   1.26736655076661     -3.03275974908376     -1.13166055892060
  H   0.92820847119172     -2.74824802505785      0.58788262196357
  H   1.64679107763344     -5.28345490311906     -0.36240253835681
  H   2.05909204976860     -4.72824780673214      1.27386773326988
  H   4.22140435737259     -5.20647053789338      0.13150129954115
  H   7.37922111798156     -1.02873306595499     -0.06808581000421
  H   7.19695475304175      1.93702918104122     -0.05035318199840
