24
Coordinates from ORCA-job 10993optt
  Br  1.11815352243570      0.34102400317356      0.51019550167850
  C   2.96264814863602      0.14196248860472      0.24028074726256
  C   3.57207836187705     -1.06665675009879      0.08398219859041
  N   4.93431520923547     -1.04435085631476     -0.09286212642055
  C   5.84059034757165     -2.04338407615412     -0.36413341744116
  C   7.06104430501111     -1.40791220563071     -0.39535639457122
  N   6.95779840200801     -0.08083987534609     -0.16284613035544
  C   5.67282096592492      0.14509297690383      0.00279332246365
  N   5.05947181297274      1.31983941636978      0.21674851614009
  C   3.76477627361516      1.32337073711852      0.29934338680405
  C   5.44207882591357     -3.42764316079692     -0.77355867589592
  C   4.69175052269962     -4.23800923698636      0.30489562550256
  C   3.74384138704477     -3.37291779599258      1.14426159219847
  C   2.91656406910719     -2.40638807526624      0.31576813071492
  O   1.80544535642297     -2.64368941055628     -0.06118549487313
  C   4.62781403880201     -3.34492043996231     -2.00120361796111
  N   3.97551902233827     -3.26920345704467     -2.94018295693013
  H   8.01330754645212     -1.87172873368724     -0.60337033035233
  H   3.27119512802087      2.27651807451494      0.45381458597919
  H   6.35810535351572     -3.95505568765000     -1.04583636087885
  H   5.42498540281911     -4.69153489405459      0.97147453121204
  H   4.13906830499781     -5.04193235362186     -0.18046305082001
  H   4.33045814699957     -2.79881093562086      1.86508488837625
  H   3.04516954557849     -4.00682975190096      1.68735552957717
