22
Coordinates from ORCA-job 11001optt
  Br  1.00464697213790     -0.00154682794063      0.58893344584256
  C   2.86554185343592     -0.07582438718437      0.34665028532369
  C   3.63543035910504      1.00523898750936      0.11642352223599
  N   3.18230918267808      2.32208730471972     -0.06485447268445
  C   2.03843418927533      2.85664104000240     -0.64866237546475
  C   2.16777398567351      4.20060031694070     -0.51834318001062
  N   3.35775391933677      4.53546169265152      0.10060074919719
  C   3.92099588453516      3.40402908613006      0.34169429559087
  O   5.11521546820303      3.19213265077259      0.92576007490330
  C   5.86419339887399      2.18575535486648      0.24908431950785
  C   6.20643399390343      2.58700736288747     -1.11819538576662
  C   6.44942343475093      2.90119839961935     -2.24599693397550
  C   5.08852390362246      0.87268326172792      0.20806149519476
  N   5.77590993578827     -0.19716865665095      0.27809759222329
  C   5.20744899850092     -1.46250278680901      0.17070092189913
  N   5.83889155143021     -2.51870787412569     -0.09610012866499
  S   3.47260224684432     -1.68348130839268      0.52048351600915
  H   1.28574030187746      2.24524025356576     -1.10727094580406
  H   1.48100066976538      4.96005581479785     -0.85047352468111
  H   6.76355693616588      2.02367897747661      0.83899905718573
  H   6.67634609063178      3.18885896244809     -3.24541930995966
  H   6.83282672346416     -2.31043762501257     -0.19417301810174
