26
Coordinates from ORCA-job 11007optt
  Br  1.58684482901970     -0.01352700888696     -1.92430765035987
  C   3.07577671874739     -0.23229842874721     -0.82312532888733
  C   3.16579192359979     -1.20597703751048      0.08211602661292
  N   2.29856888909025     -2.29056696087102      0.37854076683920
  C   2.94626557834333     -3.47954076969986     -0.27812548475158
  C   4.24827364307713     -3.74695281117037      0.54737857188272
  N   5.46612958412995     -3.66509707023130     -0.22873605008265
  C   5.66794760501488     -4.52376612160819     -1.25603559779892
  O   4.84326749297601     -5.32759190810678     -1.62691556300004
  C   4.15946586870754     -2.62474791843061      1.59427487581110
  C   2.64389316487543     -2.55330432269033      1.80189021022086
  N   4.30872603223165     -1.35207881097681      0.87812804602603
  C   5.48119168831926     -0.72138916707742      0.59532047840938
  O   6.55229139939121     -1.04926705200928      1.02710412712572
  O   5.35385036397200      0.34674628230079     -0.22375166384460
  C   4.20413610811546      0.69143015253918     -0.94873871201846
  N   4.20420400856280      1.72213388358779     -1.65857793955394
  H   3.14839465947726     -3.27015082403878     -1.32475275243937
  H   2.25729462828337     -4.31744836690841     -0.21149848393424
  H   4.18508149171242     -4.72201779857596      1.03658397573334
  H   6.23345481691226     -3.09931128148383      0.10897297530311
  H   6.65394192281516     -4.41161726146185     -1.73085178517440
  H   4.82093360649338     -2.68811993375649      2.45186011623262
  H   2.33373918292183     -1.73163904894323      2.44331591667569
  H   2.19865301599506     -3.48973241229737      2.12991400087560
  H   5.09488177721545      2.21183199705479     -1.60398307590291
