27
Coordinates from ORCA-job 11008optt
  Br  1.34587498976502      0.14286906580483      1.35282104213121
  C   3.02994901372786     -0.16598299634517      0.59031694228529
  C   3.51596375137440     -1.38739520220816      0.28224943436522
  N   2.79163397887340     -2.59860901917230      0.32557938162539
  C   1.61672584416264     -2.66230700390348     -0.54837868641986
  C   0.78323225209348     -3.89551843090361     -0.26395718529672
  N   -0.47784483125561     -3.95813728539738     -0.39948754604246
  N   1.49020190527517     -5.02695788192469      0.06671648865094
  C   2.79374352050908     -4.97382218441691      0.69743534304660
  C   3.58141754483239     -3.81400050811369      0.12383413622751
  C   4.94908255250724     -3.67355507988255      0.75336951270863
  N   5.60679525377529     -2.53461329635680      0.14467039636524
  C   4.95468506907512     -1.35907470760118      0.05736575609042
  N   5.64246709055654     -0.27622542561391     -0.16370715398470
  C   5.02502383386562      0.92960290986973     -0.15245774071755
  O   5.45397891251856      1.97993024707973     -0.50409635871391
  O   3.71792190603832      0.95367893773656      0.42313464122106
  H   1.92865190981674     -2.69203265429970     -1.60347137835625
  H   0.98842439718309     -1.79112080373922     -0.40419679304673
  H   -0.86191041639793     -3.06817171284564     -0.70202064480066
  H   0.88938711590880     -5.79882685785877      0.31820319493164
  H   3.32102051585614     -5.90785175054466      0.49417124993317
  H   2.71962384961874     -4.84444876848588      1.78386881706498
  H   3.72790283954230     -3.98676303794001     -0.95395851570323
  H   5.53694242255782     -4.56783617314200      0.55476353205261
  H   4.85629680901619     -3.54862464755023      1.83781454870564
  H   6.61380796920353     -2.46720573224486      0.13641758567652
