24
Coordinates from ORCA-job 11009optt
  Br  2.69438115442944      1.11972502781643      2.23529411592840
  C   4.00183574508430      0.40598464108687      1.11193652111646
  C   3.90440418680167     -0.69590953556798      0.34439515447767
  N   2.90112150214435     -1.61958952283486      0.05073079686488
  C   1.81313231893508     -1.95996021757666      0.94681859120144
  C   0.82761358027848     -2.89682059448495      0.27073861660381
  N   -0.36024115662070     -2.88632797573545      0.71521524634467
  N   1.33267789269206     -3.74635447260932     -0.69445390187627
  C   2.52499059383807     -3.45370044121968     -1.47845920768294
  C   3.51901645446136     -2.79089550470037     -0.56191278547997
  C   4.78865296018773     -2.25575245234683     -1.19821134823071
  O   5.40781711804565     -2.72888558264976     -2.09805454260389
  C   5.08048474488367     -0.97081955716087     -0.43453776532487
  N   6.16540091774725     -0.29789557249092     -0.49240652947604
  C   6.23770960973350      0.84768554989396      0.29280208634018
  O   7.15282935410489      1.59681738574622      0.34894924483889
  O   5.12149439588983      1.13655870343171      1.09826360191089
  H   1.25772700834101     -1.07575068298999      1.23791882226223
  H   2.18490960810533     -2.45193243354362      1.85776301683849
  H   -0.95629734179796     -3.57001034668555      0.25036767404064
  H   0.63147640042010     -4.29729723715181     -1.16677301260631
  H   2.31352130830093     -2.78598951273243     -2.31997043829798
  H   2.93842292644162     -4.38386273450992     -1.86714349567814
  H   3.83291871755231     -3.50701693098417      0.21872953848848
