28
Coordinates from ORCA-job 11003optt
  Br  2.07088248458248     -0.90103496092677     -1.54012609437115
  C   3.69010963248005     -0.27698084913771     -0.81999891485113
  C   3.98530728807767      1.03456632047632     -0.55131465465595
  N   3.31975049867689      2.22069725723222     -0.74481790059511
  C   1.87112921975439      2.39284388761730     -0.81881574881388
  C   1.27597131323000      2.48592726542686      0.58177213542113
  N   1.91177120574369      3.51999534470246      1.38932632062185
  C   3.35789012551096      3.37726054683686      1.43057187914254
  C   3.99164221162342      3.27218023520115      0.03778819321582
  C   5.44211045017774      2.77458562514466      0.05396303840053
  C   6.22061908067044      3.16897731702714      1.22141973475916
  C   6.86296655137921      3.51440806469006      2.16875948955012
  N   5.21707918221173      1.33052387003981     -0.02074463690095
  N   6.22149418358108      0.47882251381235      0.15064175133330
  C   5.97876023422518     -0.75859055227844     -0.09174903426978
  C   4.69332885959131     -1.29249393042640     -0.57593925864999
  O   4.53764965899488     -2.48628827096308     -0.76263579201450
  H   1.43040076581737      1.59190014428646     -1.39980699867878
  H   1.70190689430928      3.33252586734072     -1.35300022738833
  H   1.40780526604300      1.52460625498348      1.08882877790966
  H   0.20538260849181      2.68490481574011      0.52532752762251
  H   1.65428960114085      4.44072209844108      1.05103508866896
  H   3.59673387305581      2.46881858699156      1.99358771588147
  H   3.79404957451288      4.21615674102321      1.97233524987816
  H   3.90182156500069      4.22106432237327     -0.49411974237336
  H   5.96433873247518      3.09771829650512     -0.85267161349758
  H   7.43998315640219      3.80727988025033      3.01389611249146
  H   6.78682578223970     -1.46209669241018      0.06348760216383
