27
Coordinates from ORCA-job 11005optt
  Br  1.03938547163954      0.06352855759556     -0.01997826689812
  C   2.91279962163387      0.05853889911766     -0.00364236643672
  C   3.65824833897817      1.18621060851029      0.02120391025651
  N   3.29500084675016      2.52615910651150      0.04362087127614
  C   2.13837058658723      3.28142454598694      0.05291993685438
  C   2.53085296305948      4.59417907685687      0.06289565422346
  N   1.66770035369763      5.68951583428539      0.04525568528837
  C   1.99865665440793      6.95370526481497      0.46127320107477
  N   1.27177663084766      7.99222244172849      0.46590461473917
  C   3.96283321104696      4.64988858983773      0.06485026819120
  C   4.39419339144366      3.35834497093329      0.05927417782045
  C   5.66038911955506      2.55542173977347      0.05141576788086
  C   5.10361823228756      1.15080441124483      0.02663223701360
  C   5.70618434096430     -0.04466659942950      0.00778730192610
  N   4.95791455158536     -1.18948103495646     -0.01296424108550
  C   3.55949816951755     -1.25357954081280     -0.01994923092263
  N   2.89034383033616     -2.33911298083685     -0.03831609512577
  H   1.16066472598989      2.83950915192217      0.05448579026323
  H   0.71084191281873      5.52229594292015     -0.22412981309648
  H   3.02014698480800      7.02798254276988      0.82904277772258
  H   0.33698197584759      7.80771940502436      0.09999615799331
  H   4.58044018296759      5.53153436656877      0.05050462727933
  H   6.26605044645616      2.74614181056118      0.93929856626262
  H   6.27397517122977      2.77396241890802     -0.82462128136108
  H   6.77907952562880     -0.17822476073282      0.00814243269932
  H   5.43718906047354     -2.07515439446487     -0.02527647498212
  H   3.48786369944162     -3.16187037463827     -0.04762620885698
