22
Coordinates from ORCA-job 11002optt
  Br  1.31579648443879      0.46819032986502      0.45580543317077
  C   3.15649444277657      0.39636703865272      0.16093202412284
  C   4.01864191282752      1.33498233820520      0.55935149477247
  N   3.80276688230782      2.55384850758589      1.28994484540223
  C   5.14521681540757      2.76600575984384      1.89621311129607
  C   6.06552145035907      2.46558753420253      0.70247970480227
  N   5.87485531701001      3.53819155784690     -0.26907963258718
  C   4.64914317341902      4.12558226903319     -0.51847330265726
  C   3.59481216237733      3.63032865388849      0.36727428417262
  N   2.41761929661301      4.19640071701538      0.29972432996527
  N   1.42141628102356      4.69070235495150      0.21719964121110
  O   4.48989553977145      4.97439082232111     -1.36989753965513
  C   5.40395439082336      1.19245735751646      0.19842668701625
  C   5.84959504685962      0.12994424495087     -0.48571762827152
  C   4.90417409303833     -0.90384551117577     -0.88549936893088
  O   5.14415185072562     -1.90668330478658     -1.47999050718215
  O   3.56126082761540     -0.67457468437005     -0.52711551134423
  H   5.29319117237996      2.04387472405951      2.69778596254571
  H   5.23872392058898      3.78149594556189      2.27121398550519
  H   7.12078953965620      2.36547820439353      0.94335257141569
  H   6.56922411896238      3.69565255819185     -0.98363631780408
  H   6.87775528101835     -0.02437741775353     -0.77929426696605
