24
Coordinates from ORCA-job 11014optt
  Br  1.27705894223581     -0.29371067766588     -1.54397871611123
  C   2.92999730826155     -0.34748476977334     -0.67568840924030
  C   3.53541410468454     -1.50322831262864     -0.30493275894341
  N   2.96213562923088     -2.77646016450405     -0.49108573252521
  C   3.91029171434784     -3.87404268467108     -0.61611280665655
  C   2.96867318972815     -5.06378506758719     -0.49613658931900
  O   1.89078858163482     -4.57147845630228      0.29880459221017
  C   1.90586424332364     -3.21126523870082      0.31906406428501
  N   1.12435592818697     -2.46553857358352      0.95427719902547
  C   4.89330901781868     -3.77995478958768      0.53695624740976
  O   5.55593182368364     -2.52230389199728      0.54376767909420
  C   4.86078938874946     -1.41057358207966      0.24458358183328
  C   5.47112473633998     -0.20244119726442      0.41659222790535
  Br  7.21189859151429     -0.08793069527129      1.08547586855619
  C   4.80522645966898      1.03809909854660      0.08560474361304
  O   5.23789847087659      2.16152847600591      0.21980610932584
  N   3.52707994880828      0.84592131138509     -0.45822751690623
  H   4.42533534148000     -3.83197321828793     -1.57577336828601
  H   2.58776029108650     -5.37439544951293     -1.46912319577275
  H   3.41458649461228     -5.91574061613741      0.01541971035023
  H   0.42346577872719     -3.00847606781292      1.44938739566521
  H   5.68185448835445     -4.52665215713155      0.46203649947774
  H   4.35990045706750     -3.91270060617481      1.48459228675698
  H   3.04925906957794      1.69758733073708     -0.72030911174780
