24
Coordinates from ORCA-job 11011optt
  Br  0.92349532268772     -1.04769855944597     -0.31140499384128
  C   2.74826210042295     -0.77314687079658     -0.05576889575085
  C   3.64852353675709     -1.75601183735043     -0.23156831920635
  N   3.32010639535630     -3.04761881481534     -0.72444783792190
  C   4.59126143818895     -3.64617085075329     -1.10036790543869
  C   5.31566944065905     -3.55687756844913      0.23797611244588
  O   6.03664333185755     -2.35135817981073      0.21941544802871
  C   5.05998881932607     -1.38296862710964      0.09489521290576
  N   5.45580025816903     -0.19981399349096      0.33706600533620
  O   4.52673069866382      0.79868004735791      0.32211116544540
  C   3.17235570264652      0.59697329209484      0.25805438012316
  O   2.45405043540591      1.53623115791076      0.39865746069046
  O   5.95890540333242     -4.73635001585677      0.59918518465024
  C   4.95970525738311     -5.65212598444350      0.86144641781126
  O   5.24981233481577     -6.72377032696281      1.27703839703522
  C   3.44192247120033     -5.34825892467554      0.54418469638381
  C   2.68046877862634     -3.99699499754041      0.25485399391320
  H   5.09906211320682     -3.05385415775367     -1.85988029098796
  H   4.45903436665877     -4.65081140701224     -1.48504140897106
  H   4.59433458069458     -3.39941551419038      1.03597301562834
  H   2.92652284822835     -5.79834723300660      1.39301347829548
  H   3.25138419453451     -6.03133837949403     -0.28603523192201
  H   2.49153690626712     -3.47052688268293      1.19087470518261
  H   1.71042326491090     -4.29142537172251     -0.14323078983564
