26
Coordinates from ORCA-job 11019optt
  Br  1.17948810597820      0.16917533859490     -0.88395722433139
  C   2.98904262637147      0.00006884291743     -0.35784164895286
  C   3.53896318052241     -1.27323427913253     -0.18573054504696
  N   2.77680863944135     -2.44972244620648     -0.37290643380600
  C   1.77170897292733     -2.77216498220110      0.64467631098694
  C   1.66322781474009     -4.28651786906107      0.61086432831541
  O   0.94338078524585     -4.94925693467941      1.29629815643082
  C   2.64137439661010     -4.81195672238371     -0.42568630984039
  C   3.60123674729474     -3.64080927310172     -0.62240092313521
  C   4.74662376985466     -3.68989296344559      0.39334131669166
  O   5.54623291867241     -2.53751455577623      0.29955887971885
  C   4.89947631159796     -1.34875249453060      0.13784628033895
  C   5.67103765052105     -0.20245869696715      0.27563548985662
  C   5.08883602249180      1.03922149214836      0.12058113592564
  C   3.73931432291747      1.14898229957800     -0.19145619650528
  C   4.15209295387220     -3.59318727908984     -1.98667795042225
  N   4.59239257500810     -3.59550410297433     -3.04343405618595
  H   0.80674686651560     -2.31753913210329      0.42191792633333
  H   2.06939342354957     -2.46014173367380      1.65269234511831
  H   2.08820320447946     -5.01262607815217     -1.34501403967901
  H   3.12339305854376     -5.73084403220638     -0.09716396355794
  H   5.40197820137638     -4.54123027833669      0.21728672715391
  H   4.30809116325993     -3.77376928015618      1.39598352155925
  H   6.71994020828097     -0.31745827445840      0.51259905498408
  H   5.68640638602122      1.93338231834103      0.23448094229967
  H   3.27660969390589      2.11575111705698     -0.32749312425018
