25
Coordinates from ORCA-job 11023optt
  Br  2.07258197601359     -0.00223682621631      1.68547115792301
  C   3.53278089050399     -0.01305886602356      0.49177543957565
  C   4.40796773499966      1.02869636217778      0.49352544286116
  N   4.20779573573487      2.08387117539624      1.39965808949817
  C   5.37191799051111      2.89225924251132      1.76473389451340
  C   5.34425884145048      4.01450457137262      0.74967238128668
  O   5.60332374851795      3.50255328127355     -0.56391221451942
  C   6.32487735489971      2.33356966654526     -0.65852022779098
  N   7.51503251789419      2.31080462689243     -1.06065660533103
  C   5.56194594720798      1.07333692700707     -0.40460011017340
  C   5.94785797360437      0.00655407268927     -1.12806994698773
  S   5.13341621786121     -1.48809693232268     -1.21549880988177
  C   3.60636669474519     -1.20826667699668     -0.34849395421886
  N   2.67625784301197     -2.06620517197826     -0.40354947316754
  C   3.84199107651004      4.33355225039821      0.74042384013653
  O   3.33433441834467      5.39020061609952      0.52370761931942
  C   3.12555009485836      3.02978095558634      1.10803214574253
  H   6.28639503027417      2.30180118516733      1.77150863386636
  H   5.22362078896886      3.29369690703751      2.77047195985797
  H   5.97459896180331      4.87874325315642      0.95206574159533
  H   7.84292679763284      3.25489354779092     -1.25796996749349
  H   6.82998225315090      0.07492383462823     -1.75228386182926
  H   2.89146856429322     -2.84808894162628     -1.01852894491003
  H   2.49130440180861      2.69165350765862      0.29018962098635
  H   2.49244614539867      3.20155743177510      1.98184814914091
