24
Coordinates from ORCA-job 11026optt
  Br  1.06294368918547      0.07523880343395     -0.40076541608187
  C   2.91518465169322      0.05675482213797     -0.07404537813123
  C   3.66142603673447      1.17116264545651      0.12759565421881
  N   3.06900987021627      2.40939007945441      0.44710755007446
  C   1.95552719614194      2.46765677922864      1.29856800219949
  C   1.34152613256554      3.64464253073476      1.32205846255083
  S   2.12202127244561      4.79343395602784      0.27499141863152
  C   3.40175455389812      3.64613931921148     -0.08993427200559
  C   4.50786169294663      4.03819043746010     -0.75838964300865
  C   5.77387313339790      3.35212638591791     -0.87509612519009
  N   6.81848876415192      3.85169098881284     -1.43129441335643
  C   5.99217659209071      2.01341618627806     -0.30931703709687
  C   5.12500945802557      1.05751687537408      0.07641045889682
  C   5.68749190464434     -0.27622911141069      0.27348248241643
  C   4.94639407734645     -1.38278894158676      0.21879135858920
  C   3.51095665236059     -1.30946941003948     -0.07972515964031
  O   2.84832613652110     -2.29656780033018     -0.30186475822379
  H   1.69680411823561      1.58941829361611      1.86409126337850
  H   0.47624196079000      3.91077494728355      1.90351058356774
  H   4.49801679386559      5.05610140880182     -1.12749006709288
  H   6.61530179096438      4.76660284224956     -1.83291988912559
  H   7.04133459659251      1.73998493366341     -0.33574734795328
  H   6.76226316358393     -0.33225640258345      0.39565862651648
  H   5.36606576160208     -2.37493056919245      0.31432364586631
