27
Coordinates from ORCA-job 11021optt
  Br  1.07713999457884      0.52326726657796     -0.20571143006926
  C   2.90294851214976      0.18021253269169     -0.43590696364961
  C   3.81267462296705      1.14940301983828     -0.67678295743640
  N   3.63166482425510      2.53584199540071     -0.77185573785117
  C   4.86586325325262      3.03479465303011     -1.41034959626003
  C   5.98293398603991      2.10817221947331     -0.92029548346905
  O   6.53838371464253      2.44722517385561      0.34443065029816
  C   5.84518169575590      3.33002097178783      1.22019086652752
  C   4.41138547505980      2.90841035509717      1.59000233557497
  C   3.35163061471139      3.18056961222172      0.52101605682288
  C   6.66701122676924      3.39961969255357      2.43262420932492
  C   7.30886018163374      3.45259002337878      3.44063435263599
  C   5.20341059952709      0.81821405503979     -0.83724718179497
  C   5.57609949149725     -0.46070103399558     -0.77647503046235
  O   4.68168479512158     -1.44229290902317     -0.58541423675833
  C   3.32259283524137     -1.21710984078793     -0.38445465818802
  O   2.62743779063036     -2.16888190318931     -0.20264290385781
  H   5.02135540269904      4.08769738695312     -1.18958808509586
  H   4.76983834789868      2.92382970070737     -2.49118237422688
  H   6.82163759293540      2.06157288861627     -1.61331341866804
  H   5.81753085448683      4.33692671558779      0.78414065223273
  H   4.13237140072355      3.46180401083084      2.48869694212852
  H   4.42714408249289      1.84971587039241      1.86248050163241
  H   3.26696077581630      4.25209512774100      0.33104423736954
  H   2.38096861341478      2.83445773855909      0.87369190060814
  H   7.89011248969831      3.49450768386060      4.33090292178832
  H   6.58817682600059     -0.83296300719906     -0.85363556915633
