20
Coordinates from ORCA-job 11034optt
  Br  0.66222691511083      0.19467668479514      0.08894061117877
  C   2.51107825955326      0.09990228873533     -0.09771784141641
  C   3.19541243219432     -1.04762876786712     -0.07681050668145
  N   4.56618676875327     -0.97671916458020     -0.22081491416756
  C   5.17299328773572     -2.16499278098732     -0.17944199025651
  N   4.20677277309857     -3.12500808141746     -0.01367514899119
  C   2.92885074492746     -2.51536359206630      0.07072226437900
  N   1.79336482240878     -3.03331520696721      0.22978361349053
  N   6.47239704038905     -2.01817755091035     -0.30781439700830
  C   7.40612576027111     -5.79729233769443      0.37568481309013
  N   6.71532157314574     -4.83765685544692      0.12613014311477
  O   7.96996058170542     -6.77648713494855      0.62991187616491
  N   6.70347804917368     -0.66989636649080     -0.43546438438610
  C   5.54872309089661     -0.05205462422770     -0.38124338362584
  C   5.14344534367454      1.35329050163968     -0.45305152910948
  O   5.82833840559002      2.31118836029564     -0.59517408152978
  S   3.32374605364070      1.64470837357355     -0.29972926163420
  H   4.40932970277927     -4.10772895204223      0.09414704030358
  H   1.82469344975159     -4.04748487450529      0.30759925661349
  H   7.06255494519990     -3.89395991888740     -0.06998217952833
