23
Coordinates from ORCA-job 11032optt
  Br  1.88683992774999     -0.69210618711028      0.38659346752441
  C   3.55905289123517      0.11515452409000      0.19313580347347
  C   3.79316333724510      1.44115909089539      0.19393877369683
  N   5.08428459937322      1.92881303564652      0.05981879142199
  C   5.05953060671865      3.34166222758317     -0.09485049765904
  N   3.72932141022642      3.68461663051023      0.14196267775215
  C   2.88267265517113      2.60552137153266      0.27106881285172
  N   1.63010196614080      2.54486743025479      0.42340238369851
  C   5.96894970461208      4.24051048271932     -0.48787256240972
  C   7.39553589175986      4.14078440820420     -0.80939356366234
  C   8.28126287831182      3.41976619336595     -0.13952205037154
  C   7.83925269603291      2.58581945144317      1.02695097339159
  O   8.00797753758079      2.93125758969455      2.16693025566197
  N   7.32255219701407      1.35927297065742      0.66889086274752
  C   6.18315155950698      1.05049106816922      0.23749813268716
  N   5.91409242673390     -0.27664927154005     -0.07818047738604
  C   4.70872204229441     -0.70926500936001     -0.06901456348744
  H   3.40359341095751      4.62832843270381      0.02068814127236
  H   1.19748175140003      3.46611251120342      0.45451965079727
  H   5.55713288571529      5.23984587335303     -0.58615681781749
  H   7.73220314415663      4.78659006860225     -1.61265838788473
  H   9.33542541741692      3.42739996390764     -0.38421396421194
  H   4.54569906264621     -1.75995285652643     -0.29453584208667
