22
Coordinates from ORCA-job 11038optt
  Br  1.65634326351846     -0.31558114201535      0.16955459429669
  C   3.44117608253570      0.24480573135821      0.18530205548985
  C   3.81016108960894      1.53142323265259      0.11333274744669
  N   5.15887627230333      1.98838344496009      0.13299999898888
  C   5.11847770766845      3.43616323074817      0.09256285593915
  N   3.77908048344904      3.75078661933237     -0.04163099192082
  C   2.91180995746092      2.69966613786202     -0.00217685501666
  O   1.71284647263051      2.74774912074331     -0.05010499878470
  N   5.88715169799166      4.45795570545223      0.14327326421723
  C   7.24790781138394      4.52206414159801      0.47878146987786
  O   7.87220388641469      5.53865668185143      0.49654400553877
  N   7.63457060412053      3.23159337510853      0.82781520946144
  C   8.02101746391590      2.50103078039433     -0.13898496966069
  C   7.52476694538691      1.15180818498031     -0.10942770894996
  C   6.19414412147015      0.98928157117601      0.09850184940332
  C   5.73419518276979     -0.38770432514360      0.21294816090277
  C   4.45540216717350     -0.76709540231366      0.26909633245282
  H   3.50719511808547      4.72181672923084     -0.05872787940318
  H   8.49443064590150      2.91207164018993     -1.03732805722903
  H   8.12537085443932      0.27465588593413     -0.30193826000624
  H   6.52073787501292     -1.12757436283732      0.25865927897516
  H   4.16913429675832     -1.80495698126260      0.36094789798065
