22
Coordinates from ORCA-job 11033optt
  Br  1.65018342434396     -0.43749771169220      0.75846247683217
  C   3.25656553135564      0.17604690552476      0.05025987712484
  C   3.60151151191699      1.45417763477312     -0.09285819616026
  N   4.87830368427875      1.71188682379515     -0.66258907536012
  C   5.08993667239832      3.06439868595483     -0.67889269731164
  N   4.02939799410139      3.66293424922498     -0.07133995635238
  C   3.01827989778038      2.74952806340748      0.28507657893928
  N   1.87173009485261      2.95375838515679      0.77065500085001
  C   6.31410173284832      3.57515188891080     -1.06209461860345
  C   7.00739500998602      3.72807564475782      0.23128206810001
  O   6.91991215585793      4.59674319123246      1.06411518632064
  C   7.67957128459021      2.39895993421282      0.54974745888467
  N   7.17235418713375      1.24350049452730      0.34485788999416
  C   5.94887215361479      0.86080708567716     -0.15731969654654
  C   5.55447561153630     -0.42932155953732     -0.05572480908641
  Br  6.66592490039828     -1.81407716332496      0.51761206378558
  N   4.22590280609829     -0.77124159003437     -0.27746827659243
  H   3.93219614951044      4.66610722364351     -0.04571805958896
  H   1.68560093223889      3.94058530033119      0.93463077332884
  H   6.82084910984481      2.83633484102008     -1.67431795609737
  H   8.65710248323630      2.42476217938784      1.03010712672355
  H   3.97483267207758     -1.74562050694927     -0.21948315918418
