20
Coordinates from ORCA-job 11035optt
  Br  1.04144502649755     -0.22140257778000     -0.78352728070793
  C   2.81152255384394     -0.03417638092056     -0.27287037440600
  C   3.45574189659151      1.12489112399606     -0.11876815653828
  N   3.09944114639843      2.47668707723131     -0.22222358840218
  C   4.26725346799475      3.25510306079964     -0.20736773679243
  N   5.33445324811631      2.40927596176421     -0.02912532786048
  C   4.90153037016480      1.10070780445388      0.04020260488095
  N   5.64509721768346      0.08167912658517      0.15899233738255
  O   4.95878454962253     -1.12401429766856      0.18766450413396
  C   3.61340967955778     -1.26299007663875     -0.08616826700514
  N   3.10177434031165     -2.40755523265489     -0.15271828697787
  N   4.34423554065891      4.51685176249296     -0.29184804268032
  O   3.11051995383171      5.14682684126331     -0.51457132260149
  C   1.95094043148070      4.59649127063101     -0.04572139842628
  N   0.90509350530189      5.26216314029060      0.10769493261985
  C   1.91384042161500      3.10027373100968      0.20567480436285
  O   1.00444835172663      2.51930438308461      0.70011698205365
  H   6.29453695080279      2.71183905918173     -0.03722389099408
  H   3.79954615992181     -3.13354349189270      0.00135852022095
  H   1.05938518787778      6.24758771477125     -0.10857101226228
