19
Coordinates from ORCA-job 11044optt
  Br  1.40657251201230      0.43080539440403      0.61101521718137
  C   3.13475767040344      0.19163518520194     -0.03631126048850
  C   3.91210515470732      1.19033168412796     -0.48133390837326
  N   5.19636070358883      0.75544694177566     -0.84655486941260
  C   5.89926999023438     -0.30292844939142     -0.33373744769593
  N   7.14851647836527     -0.02771333877645     -0.04399726042311
  C   7.24837365634495      1.34970334902813     -0.26038277799728
  C   6.05244193081661      1.79760548117542     -0.78502412832946
  C   5.50470679281756      2.99155954270534     -0.40613854914638
  N   6.30829783306713      3.91058297507546      0.09562242786523
  C   7.59549108136605      3.50380045395989      0.26317100470161
  N   8.10139373017053      2.26857618288944      0.20022171178017
  C   3.98371750491271      2.70664433912022     -0.29728055137891
  O   3.08541539631264      3.44333508611035     -0.04055796305833
  C   5.02332183721211     -1.47288953193550     -0.04108915414352
  O   5.35931194209152     -2.59857471802541      0.16955273944326
  N   3.65725122258700     -1.09054477603138      0.00382517460069
  H   8.27605207919194      4.27256487947375      0.60639965273307
  H   3.03764248379767     -1.84794068088745      0.26159994214188
