24
Coordinates from ORCA-job 11049optt
  Br  0.95639626272864     -0.11027237611453     -0.34316057070329
  C   2.81530395558073     -0.14585105295620     -0.08101969766535
  C   3.54234140227530     -1.28566854453973      0.03669964033583
  N   3.06061668917813     -2.60603839077737      0.09600683514999
  C   1.78934961659264     -3.10913669661797      0.29922561079036
  N   1.77213018925347     -4.40872619310426      0.28012356321080
  C   3.05959833524094     -4.81091425915916      0.06666804528352
  C   3.88169935729302     -3.72919646676943     -0.03786174111606
  C   5.29628858482044     -3.55924511157429     -0.11807036447946
  C   5.78627683332098     -2.32927553431247     -0.00677043305184
  N   4.95023028155668     -1.20517016381136      0.11095738289424
  C   5.54197856778391      0.01784447803812      0.17115175743721
  C   4.87648069141366      1.18743493621278      0.12459027425676
  C   5.69768362982414      2.40095383947273      0.20533502721980
  O   5.28624769849077      3.53145664728935      0.14912055825591
  C   3.42019539558214      1.20507147513011     -0.04493198433663
  N   2.68908391881189      2.23842380918937     -0.15744341339226
  H   0.93777294555695     -2.48269296135315      0.46736402318470
  H   3.33725290560599     -5.85093442258343      0.02002541844887
  H   5.94604011102423     -4.41444713121243     -0.21601646665543
  H   6.83957066642237     -2.09682967590034     -0.01150590339105
  H   6.62176058035480     -0.00418990156854      0.25261503830120
  H   6.78185199083229      2.20629058842762      0.32555957202744
  H   3.25384939045587      3.08311310859461     -0.10666217200524
