21
Coordinates from ORCA-job 11045optt
  Br  0.78284348961342      0.18612580449446     -0.26553360914474
  C   2.63920736657389     -0.02235254686084     -0.21911575410656
  C   3.20051487353834     -1.22197456588728     -0.37038056940053
  N   2.55688882321545     -2.48504626781367     -0.58400651250455
  C   1.65906309841104     -3.26936913526690      0.16209540094596
  N   2.11144611710683     -4.46704619992849      0.47022161078154
  C   3.39223208046940     -4.47424981709792     -0.03880205191547
  C   3.60742239138080     -3.35411890075260     -0.73946542320020
  C   4.86684239698220     -2.90128084103392     -0.37066239026871
  N   5.51935433047992     -3.84594937032401      0.27231135812307
  O   4.58295608866732     -4.91437480929935      0.43338906687015
  C   4.69832284950051     -1.42744904927841     -0.30983974078389
  C   5.53417986625273     -0.40507537485561     -0.13291801279505
  C   5.00288659407492      0.95342520858698      0.02193678375123
  N   5.71333462602002      1.99036315727878      0.18965664089925
  C   3.49031390546945      1.16325044550759      0.00062307083330
  N   2.96744353015318      2.30183424371914      0.15748208636402
  H   0.66852984998407     -2.91564587916067      0.40214573087460
  H   6.60560640815548     -0.55218047316502     -0.07991016652823
  H   6.70905954763543      1.77268141509780      0.19761286741231
  H   3.70855176631556      2.99643295603995      0.28915961379249
