23
Coordinates from ORCA-job 11057optt
  Br  1.23917060058356      0.00529301992083     -0.86818030472697
  C   3.03362159539646      0.00459522648631     -0.33907133471273
  C   3.70651609403286      1.12979933171874     -0.03128445791599
  N   3.11039553414400      2.38610275885904      0.15581887363335
  C   1.93231609502583      2.62120504039270      0.81959668317045
  N   1.53715668019061      3.85373396124477      0.70108551563395
  C   2.46080135771971      4.47049423842626     -0.09600179405698
  C   3.45959791744687      3.60277462182944     -0.43390437987805
  N   4.63189916653228      3.87254293212944     -1.08979278792746
  C   5.69990649775919      3.23555705955493     -0.85188514297808
  C   5.95603885839572      2.16821272282221      0.16996140148846
  N   6.99529847952782      2.15027032830057      0.88381583448949
  N   5.07528665932969      1.05652391821873      0.24584162899889
  C   5.63688824946807     -0.20193796223812      0.39199517488073
  N   5.03557105361038     -1.30063287027311      0.19535580177470
  C   3.70621712285416     -1.30725710196417     -0.26532028154781
  N   3.09990709394076     -2.37039697742835     -0.58848397161753
  H   1.42712025504230      1.83689604314907      1.35834521808942
  H   2.39918151034591      5.51267969658903     -0.36093543976881
  H   6.60076113550166      3.54721372510847     -1.37748968488015
  H   7.60416546310034      2.93806008970449      0.67071578533046
  H   6.67982613407292     -0.17820044630200      0.68314878165187
  H   3.72335644597884     -3.16452935624931     -0.44833111913122
