25
Coordinates from ORCA-job 11050optt
  Br  1.16897383686058      0.13435519925401     -0.59673652007902
  C   2.98608757015518     -0.07480191227966     -0.19344857885722
  C   3.56392426852814     -1.27537837539352     -0.02163728064462
  N   2.86599526067857     -2.49440367637557     -0.11042556894291
  C   1.90438958505175     -2.91963296275236      0.80962652633470
  N   1.71242375183438     -4.16630513715933      0.89608016747507
  C   2.61030672409850     -4.80202312205799     -0.06725150690266
  C   3.62472740773373     -3.69634741721092     -0.46145744870410
  C   4.88299424788356     -3.74146723575913      0.41133572083830
  N   5.61568464379221     -2.50434665445061      0.26894518991107
  C   5.00267626573825     -1.28590547965433      0.20792804727153
  C   5.66791328658675     -0.10626298169903      0.29206947279764
  C   4.99216053694771      1.15950324886447      0.17472952413701
  N   5.42820846543251      2.33914189344364      0.26506471421615
  O   3.61726833953520      1.08343090705897     -0.08431995463595
  C   3.98139990471950     -3.71844295396350     -1.88463440174781
  N   4.27950496681255     -3.77649931687677     -2.98893121538327
  H   1.36563952428269     -2.17031465420712      1.37662281647090
  H   2.03970584238722     -5.13425286821093     -0.93615241177228
  H   3.11031751572103     -5.66667189863902      0.36903584026310
  H   5.51991401599527     -4.57115375477174      0.10641851357589
  H   4.55088515706739     -3.91560398520107      1.44198682617733
  H   6.60216351133009     -2.51305983816444      0.46551279063565
  H   6.73711734506529     -0.08279078002410      0.45111327853927
  H   6.42561802576186      2.33723375623009      0.45252545902619
