24
Coordinates from ORCA-job 11067optt
  Br  1.31214107846178      0.16937888926006      1.12603513600007
  C   3.04874688112525      0.07049736188759      0.43982144411181
  C   3.63010775581798     -1.10619147293178      0.12025636581917
  N   3.01523807137846     -2.35145860615835      0.09498746161772
  C   1.73816033971688     -2.74113159949915     -0.40532346684624
  N   0.91897125574214     -2.11868574866127     -1.11643823617861
  C   1.62212760836123     -4.17941544001178      0.05994672020996
  N   2.96119546989679     -4.58569232438526      0.48837395865170
  C   3.66405910447397     -3.53594164296520      0.48594460974064
  C   5.16037509050057     -3.46643806062607      0.58052007558837
  O   5.84457909232879     -4.18254288781981      1.24341245795879
  C   5.69457987610239     -2.40130010987252     -0.37104492245248
  N   5.00048946384671     -1.13770005233745     -0.14788406973640
  C   5.69363522924251      0.04121888705600     -0.09970124112299
  N   5.19461674742210      1.19242630464873      0.10405590224495
  C   3.81487433505958      1.32612282319181      0.35205733763341
  N   3.25299783135845      2.44797697503826      0.52695594372426
  H   1.18548216943295     -1.15451411557241     -1.30449837954616
  H   1.25484092793496     -4.82791057625786     -0.73281376507706
  H   0.92918237712852     -4.25098062715005      0.90262012426391
  H   5.53896743865449     -2.75466067281947     -1.39671629485518
  H   6.75821838323168     -2.26119982666250     -0.19779616066444
  H   6.76306340871688     -0.06125437831030     -0.26152352513458
  H   3.95035006406490      3.18639690095881      0.44875252404938
