22
Coordinates from ORCA-job 11066optt
  Br  1.47059762200660      0.79627367679614     -2.21307725505455
  C   2.99135131412789      0.23041746587784     -1.11478521369901
  C   3.53053628924200      1.28471661939324     -0.22273264229233
  N   2.88396975233044      2.49688082760318      0.02466736446725
  C   1.56000882393279      2.76041572173994      0.36661765450032
  N   1.23660667340991      3.99319774648302      0.39250895749496
  C   2.41266699127352      4.71299397113468      0.04831935142840
  N   2.54892125256137      5.96024584352383     -0.05112682334256
  C   3.51637953816455      3.72494078099247     -0.16584597900811
  C   4.79315947386333      4.02750676525894     -0.46405722301428
  C   6.00779644056314      3.18721931366760     -0.45540156585859
  N   7.13635102578556      3.50397938052672     -0.93581881101778
  C   5.88503026635447      1.93530844114951      0.37270176515176
  C   4.79858852537942      1.26214900693902      0.15520236226245
  N   5.75622233039706     -1.11985697283881      1.99926341738944
  N   5.54069826270365     -2.17203666811781      1.83868726217662
  O   3.43144540727216     -0.85679678992963     -1.21419839290233
  H   0.89349525810691      1.93571279919200      0.58125171408376
  H   1.66395953756047      6.42626400969735      0.14911412610154
  H   4.95869358019431      5.08736906343630     -0.63278301644840
  H   7.08626962469202      4.38801203133289     -1.44406084788917
  H   6.61925201007827      1.73108696614151      1.14155379547061
