22
Coordinates from ORCA-job 11068optt
  Br  1.13165182095273      0.62536830620840      0.01673693211450
  C   2.91810988375419      0.09742123970596      0.03989690945182
  C   3.41835395799744     -1.16055236720663      0.06133403758990
  N   2.90221587139328     -2.45135989456364      0.07589629331379
  C   1.71008663202734     -3.19652554815598      0.05533042862329
  N   0.50601829533536     -2.86310374474153     -0.02626011401142
  C   2.16548999295123     -4.65099287772959      0.15222702120245
  N   3.61608419113954     -4.56526391526920      0.10970119170276
  C   4.01563718990730     -3.28594198377123      0.11478726409784
  N   5.16936859535562     -2.70447342280750      0.13367723113124
  C   4.86511021935585     -1.35567427600258      0.09994615145456
  N   5.73707110128753     -0.39288972002608      0.10570707250363
  C   5.22750485303485      0.84590099656788      0.07323068203616
  N   5.85184270821214      2.01169978261106      0.06699051792288
  C   4.84717884282332      2.90204369697546      0.03335016458852
  N   3.61818031128153      2.41209800307593      0.01746806446995
  N   3.85275598158955      1.08758555913907      0.04242582966408
  H   0.36778788580954     -1.85831767643918     -0.08168302993345
  H   1.75896643304293     -5.21864872898230     -0.68374032438164
  H   1.80145171945146     -5.08220262643828      1.08605958694549
  H   4.25037985842283     -5.32764212626503      0.26797696378646
  H   5.00775365487438      3.96847132411501      0.01894112572718
