23
Coordinates from ORCA-job 11063optt
  Br  1.40658546114638      0.58176655511374      0.11603956782605
  C   3.19104424650410      0.05929507440320     -0.01376219760916
  C   3.55595145548462     -1.23292091242435     -0.01764819814473
  N   4.91048601287132     -1.59986933597057     -0.12987341392452
  C   5.00651346257329     -3.00019343993106     -0.09720981247507
  N   6.21098867801603     -3.64866509392593     -0.09193553084707
  C   7.42408062537415     -3.11208970259510      0.33978518750369
  C   7.81864210883182     -1.88328569264357      0.05499200353014
  O   7.08867185859825     -1.06979227101163     -0.78662266422018
  C   5.86388332328748     -0.65067208317796     -0.41230535339540
  C   5.54660702823771      0.65868071375201     -0.40264166667902
  Br  6.89028630950058      1.91375413752755     -0.79368452206428
  C   4.19213635367158      1.14611508534087     -0.11809150792460
  N   3.83432758205983      2.35801954566687      0.01423872435736
  C   3.78159042254733     -3.56270300610989     -0.02375520510573
  C   2.78089483420267     -2.51173637422315      0.03865418959315
  N   1.51531014661043     -2.56969012999105      0.14107602581046
  H   6.11851698275629     -4.64818478925149     -0.01648831989866
  H   8.05294815722374     -3.76223103737831      0.93121807666610
  H   8.74826053376838     -1.45673534155003      0.39984379744320
  H   4.62597742791697      2.98962372112451     -0.08842367129945
  H   3.58345362800116     -4.61803439945878      0.06567369152990
  H   1.20684336081584     -3.54145122328586      0.14992079932780
