21
Coordinates from ORCA-job 11069optt
  Br  1.25430434195546     -0.10197771547320     -1.09860363200013
  C   3.04254284722442     -0.03592619820861     -0.50917468570570
  C   3.63617389054099      1.14104874985257     -0.16311025487527
  N   2.94354100790180      2.31393713357981      0.17146129150845
  C   1.87747736813294      2.35255290986952      1.09958245440632
  N   1.27222708558678      1.46178226320073      1.74604872992890
  C   1.65228805132903      3.80704602053321      1.27269932191819
  N   2.52140621582466      4.52348750572145      0.68873062391744
  C   3.43177141027441      3.63714484925353      0.05186343115820
  N   4.49286918145748      4.06563592341615     -0.46238305846391
  C   5.45103131198227      3.22606491897932     -1.05226108950456
  O   5.92581697536975      3.49736781696779     -2.11402971272255
  N   5.91147366007215      2.09028363054748     -0.34747605855673
  C   5.09772568480036      1.14307392448828     -0.10824150254222
  N   5.60986134327608     -0.11933073815182      0.18111989750814
  C   4.89800615571162     -1.24159266322954     -0.06330982219864
  N   3.67501818090256     -1.24403526669370     -0.46451135755354
  H   1.58626609464638      0.51428994114475      1.54831332408149
  H   0.84312839331115      4.20295309232511      1.87291318804042
  H   6.61036849185477     -0.16546974534886      0.32708121227940
  H   5.41570230784491     -2.18133635277398      0.08728769937630
