24
Coordinates from ORCA-job 11070optt
  Br  1.35192217548873      0.10946387641845     -1.40108720701328
  C   3.03902367871971     -0.01408517165707     -0.60189876184152
  C   3.55847565903489     -1.14793384375338     -0.11684451047160
  N   2.97667930121823     -2.40333152246165     -0.03246191585121
  C   1.70084046286336     -2.82637513606483      0.37960536162482
  N   0.74870262357235     -2.18858453972790      0.89226589687544
  C   1.69603269407246     -4.32852032759244      0.14195361359201
  N   0.70374914924842     -5.08945407779408      0.32421970936618
  C   3.04781523766686     -4.68120905661791     -0.26347546947936
  C   3.75519788814857     -3.53812965408005     -0.30940779331781
  N   5.08589188902083     -3.29621621397301     -0.54077280789566
  C   5.75943903424747     -2.17112605303372     -0.04569113862861
  O   6.95858062177461     -2.15234196318830      0.08335713346321
  N   4.92770794278022     -1.13756558036631      0.28553890012969
  C   5.44609031474449      0.10632986074272      0.73048489536080
  C   4.85744646065408      1.22217790487711      0.32066160071905
  N   3.76384578207965      1.17774697211458     -0.55242749879285
  H   0.94066170765044     -1.19637418635306      1.00965639935878
  H   -0.09320827950583     -4.53270482861586      0.64252645160440
  H   3.41930145851872     -5.67806482766348     -0.42487989965551
  H   5.69062575022643     -4.08875792949174     -0.69662863536975
  H   6.29665620212392      0.07254789850067      1.39064402080396
  H   5.18658065495676      2.19867433093634      0.63923450985007
  H   3.22494159069457      2.01983406884496     -0.66857285443126
