23
Coordinates from ORCA-job 11073optt
  Br  1.21480649317924      0.19902492202833     -0.23095022674344
  C   3.05803514349784     -0.07121513602485     -0.07679398833497
  C   3.67469287840911     -1.25110770173708      0.10746284616255
  N   5.07675394179408     -1.27415298583173      0.23663461665772
  C   5.84229516262558     -2.42794064228602     -0.01228477294489
  N   5.13370069154404     -3.58887107705602     -0.30463183374833
  C   3.80446808919736     -3.78852520652355     -0.10823057173991
  O   3.28682357946196     -4.87583657505759     -0.20774474778426
  C   2.99235135307000     -2.55063475915079      0.22449809234557
  N   1.78283986154689     -2.68649637441225      0.55699581667426
  C   7.17346108544500     -2.42134582792858      0.06185104152508
  N   7.88587772249837     -1.24520289179238      0.41193088579900
  C   7.16723805280877     -0.07173918272471      0.24375534940151
  C   5.83617539509790     -0.06394205519527      0.16255448704702
  C   5.13739999856344      1.22145320718992     -0.02602481160785
  O   5.70238110659269      2.28937259078132     -0.07315503815981
  N   3.77776465548193      1.12003414203362     -0.16312754006766
  H   5.67011745177510     -4.42370522936333     -0.49613584365100
  H   1.54846578279757     -3.68329436950676      0.51816014690832
  H   7.74542660938450     -3.32101313944077     -0.09901281198923
  H   8.83800560062292     -1.21190840692305      0.08392909229312
  H   7.70442265311631      0.86333740013478      0.19138773365566
  H   3.27749669148931      1.98370929878678     -0.31206792169845
