21
Coordinates from ORCA-job 11072optt
  Br  1.17252192358745     -0.00440009500306     -0.68596252610414
  C   2.97479397919637      0.17422109746453     -0.22842433647904
  C   3.66581185536527      1.32063979337012     -0.02970177932359
  N   3.35123166747886      2.69396112837992     -0.07757943724568
  C   4.56307548819685      3.38306537932699     -0.04173481351016
  N   4.48014822075661      4.74364810905544     -0.06259269982915
  C   3.27786763202723      5.43326617497536     -0.06640097122563
  N   3.08406833283385      6.65360747833628     -0.25603105053564
  O   2.18796410427964      4.66107912974244      0.22507265070132
  C   2.16614439933770      3.30165584801809      0.30059090127928
  O   1.18493278655989      2.73599264035720      0.64886664809092
  C   5.62703121675209      2.55017308462543      0.02249463578565
  C   5.10360253468847      1.20994153243341      0.04593453384435
  N   5.78540683059984      0.10277622146302      0.07299570563806
  C   5.09064804702647     -1.07914166314615      0.04774617642323
  O   5.56246137737027     -2.18295567048918      0.15124321157327
  N   3.68188474036366     -0.97400846191664     -0.15868117713541
  H   5.32989005844683      5.27735484320205     -0.14140269117675
  H   3.93775469185685      7.16387954941564     -0.45723223789177
  H   6.66806347373551      2.82168825273671      0.04756186145413
  H   3.20669663954024     -1.85844437234763     -0.27076260433326
