21
Coordinates from ORCA-job 11080optt
  Br  1.03276585192571      0.68932202379556      0.02870549023937
  C   2.85309225682467      0.28247979653959     -0.01594909580141
  C   3.40906794506692     -0.94358219171241     -0.01995242461370
  N   2.98221193819765     -2.27123073470771      0.00255756532942
  C   1.81485070407046     -3.09470790833176     -0.01701487227033
  N   0.60012342498275     -2.81358136352349     -0.14759140107572
  N   2.31656608839182     -4.37151481733318      0.14152156590056
  C   3.75927697817617     -4.46497195630116      0.02821642946136
  C   4.12410587157811     -3.01979383344500      0.01327459657805
  N   5.24162042160178     -2.36737789932106      0.00091383305327
  C   4.85458963667646     -1.04495120395595     -0.02194895191284
  C   5.64803331144984      0.06893640184692     -0.03794915430402
  C   7.06821824707452     -0.01829057584476     -0.03892449267068
  N   8.21258317858417     -0.09846629321680     -0.04035673187493
  C   5.03722986499134      1.38042923333286     -0.05060740267664
  O   5.55334760951564      2.44804652122661     -0.06873920606524
  O   3.61189235998752      1.36484796974518     -0.03451272398017
  H   0.42181478052712     -1.82207179845263     -0.23767019409396
  H   1.70651655915086     -5.13268176641127     -0.10411958101633
  H   4.09389467881789     -4.94692135582542     -0.89474311521204
  H   4.22019829240857     -4.97591824810409      0.87488986700596
