21
Coordinates from ORCA-job 11082optt
  Br  1.79602072794833     -0.69458888902550     -2.36307038833931
  C   3.16512920496656     -0.21302822293627     -1.06649799365907
  C   3.49948179963476     -1.28870550311230     -0.14358153921483
  N   2.84187327900434     -2.53507502990446     -0.01381719631891
  C   1.47396885598385     -2.63473731389471      0.39884378134350
  N   0.82725171794036     -1.69747525581111      0.93645850138129
  N   0.86079204029654     -3.85383833671652      0.10343940154852
  C   1.57936700570311     -4.87387368305253     -0.17965992443301
  C   3.02552287290181     -4.87052839097314     -0.20876199956339
  C   3.62562564686553     -3.67170831317748     -0.13635694651867
  C   5.13954200955273     -3.51585382299224     -0.10161646458152
  N   6.01091549697792     -4.25394398107377     -0.60002085924278
  N   5.48767297787417     -2.34938593272269      0.70501654791102
  C   4.71809922470687     -1.46435050243935      0.38708875901054
  N   6.03347197053823      1.17229996455440      1.43068997592590
  N   6.26015429166929      2.23305961930702      1.38250456130124
  O   3.68385065546316      0.85034071460232     -1.08006222952406
  H   1.40988224691520     -0.88779987287133      1.14004571681818
  H   1.05465220270669     -5.80401102753732     -0.38123105383469
  H   3.59153993855391     -5.78933365013740     -0.24831535791364
  H   5.60518583379654     -5.03046257008554     -1.12009529209628
