19
Coordinates from ORCA-job 11084optt
  Br  1.08999111296871      0.70835605046762      0.05231719079361
  C   2.88860964094736      0.21235619637283      0.05449377695642
  C   3.39291504908819     -1.02611873157228      0.05422266501696
  N   2.88475146401215     -2.31249500046974      0.05243234560065
  C   1.66691011559333     -3.04386401955889      0.04852295393082
  N   0.46631970697573     -2.70642830679310      0.04451584304167
  N   2.08634833305165     -4.37815301953683      0.04969333980536
  C   3.44835559156539     -4.57800965089101      0.05332005585892
  O   4.04986910597174     -5.60672007380489      0.05447570534923
  C   3.98184361639608     -3.16578625527333      0.05504142127158
  N   5.13928388361077     -2.63724090950632      0.05812202733768
  C   4.89037207035096     -1.25324875226126      0.05774150502702
  N   5.80682425309630     -0.37736628567018      0.06029012310668
  C   5.39637403828485      0.96639696442217      0.05923160374127
  O   6.18306910518782      1.85972746305046      0.05972501977510
  C   3.87211083787186      1.32729976457158      0.05720837296772
  O   3.53833704741990      2.47360065348263      0.05773342522763
  H   0.32716925618047     -1.70201888311045      0.04422415446903
  H   1.40854577142671     -5.12528720391900      0.04768847072267
