22
Coordinates from ORCA-job 11081optt
  Br  0.96956981887250      0.48408804529875      0.07157046303179
  C   2.77427214880303      0.01381109229455      0.03143623037011
  C   3.29504234049464     -1.23369441134722      0.08820727772306
  N   2.82657788950571     -2.53139892170884      0.18339997921046
  C   1.62521547580884     -3.27861033715577      0.26867812908485
  N   0.42130841099762     -2.94416529980640      0.29567064847003
  N   2.06864855343921     -4.60939778952846      0.32453580229637
  C   3.51420944198562     -4.77667713801945      0.27859153440405
  C   3.95291742803665     -3.35710933979566      0.18457866906904
  N   5.07997796003369     -2.76618084981869      0.10634874913733
  C   4.74118133555230     -1.41332533730227      0.04180270210395
  N   5.58409592034590     -0.44723924114283     -0.05027352638380
  N   5.04244681434513      0.76349468026142     -0.10166235395888
  C   3.70500075109404      1.13865974293804     -0.07451250958863
  O   3.39357541388963      2.30791917741006     -0.13696282172903
  C   1.23114634582300     -5.69802619679725      0.41282534188571
  O   1.66182173882066     -6.81915316320852      0.45938831129666
  H   0.28066408572642     -1.94184854047058      0.24623877126848
  H   3.82194948360268     -5.36362957922843     -0.58795328212347
  H   3.89058032929532     -5.26787240857963      1.17688910769698
  H   5.69998601268707      1.52855160200809     -0.17086211758188
  H   0.17081230084032     -5.42419578630087      0.43206489431682
