20
Coordinates from ORCA-job 11088optt
  Br  1.28152419425520     -0.07146488171774      1.36717753650874
  C   2.93827138874189     -0.17332926343316      0.51657945237586
  C   3.54945480652477     -1.30184624829714      0.12701796160948
  N   2.94573001446587     -2.56415124588091      0.11124700220894
  C   1.69661314096017     -2.90709786319620     -0.44660260523454
  N   0.79185878564233     -2.25112276399104     -1.00855123490097
  O   1.60342583601297     -4.26656543179562     -0.32343137459615
  C   2.82266526881834     -4.76327652218080      0.04182227371211
  C   3.66183612351275     -3.76142944140176      0.29098512096195
  S   5.36349131438801     -3.81742423744817      0.64630016682472
  C   5.81312127315699     -2.27452616552340      0.03447984089510
  C   4.97779118307938     -1.24120810608194     -0.18416255106915
  C   5.57611249296902      0.06285019187953     -0.50600332808085
  O   6.68562078929173      0.22848659267288     -0.92753637920929
  C   4.70769192348110      1.29919177729766     -0.19599876461972
  O   5.05024620590179      2.40930615757320     -0.40391277969599
  O   3.49781661092097      1.06383233774054      0.40601686686500
  H   0.97876918564288     -1.25757291573736     -1.05033663515652
  H   2.94266943286585     -5.83041058305530      0.07065043091801
  H   6.88029002936796     -2.12724138742324     -0.08574100031673
