20
Coordinates from ORCA-job 11098optt
  Br  1.05196813209120      0.08847840523384     -0.08847415211079
  C   2.90692265083175      0.03757193615342     -0.09304303787862
  C   3.60444604558361     -1.11453069813557     -0.09511812884993
  N   4.97687894393126     -1.10050055813955     -0.09723043008064
  C   5.50678023000990     -2.37524331304833     -0.09797821153207
  O   4.47942485679115     -3.24586942876926     -0.09706520487397
  C   3.25879893773262     -2.55342049709625     -0.09563147019988
  N   2.13834624839033     -3.09008668829276     -0.09531233994986
  N   6.72279634873676     -2.69968627990239     -0.09910672828408
  C   7.67334268356867     -1.65646526891580     -0.09959280542290
  N   8.91551857855964     -1.86085115603052     -0.10010982567400
  C   7.21315190883333     -0.19166557387610     -0.09926714091908
  O   7.98114189235798      0.72195965917273     -0.10022101613293
  C   5.73131336908125      0.04165387088404     -0.09763776544994
  C   5.10740130473877      1.23229997699485     -0.09636364744449
  C   3.63870709241693      1.33950994844916     -0.09429460973856
  O   3.06535758194257      2.40311808024930     -0.09346553283276
  H   2.19535358402459     -4.10805707505386     -0.09621980709544
  H   9.09936897455100     -2.86579972311234     -0.10014523029574
  H   5.68598063582664      2.14558438323542     -0.09672291523433
