22
Coordinates from ORCA-job 11093optt
  Br  1.09193539547655     -0.61834766176706     -0.00209453235017
  C   2.88503338059489     -0.09054874764782      0.15810646377848
  C   3.36781621489399      1.16298865276320      0.32543877348485
  N   2.93818652930527      2.50564367184098      0.15576496927951
  C   1.70866573390313      3.16569615301524      0.08148269773527
  N   0.53090946135418      2.80746506309217      0.34264413175647
  S   2.12474004312069      4.80272702835674     -0.47619927871590
  N   3.79343821927948      4.54609917052419     -0.48269221258692
  C   4.03424825587556      3.35058276681528     -0.14184846176820
  C   5.32303795751200      2.62099787508054      0.16359591404468
  C   6.47461610803318      2.31623183306538     -0.81998082873504
  O   6.78730814476563      0.89894256183758     -0.61111144188306
  C   5.63726085490264      0.33633824497254     -0.16559666222815
  C   4.77833164762860      1.24444999527491      0.29388257262827
  C   5.18458252381394     -1.04259742381466     -0.28808724421671
  O   5.81228236398986     -2.03057528915194     -0.57957407909883
  N   3.80133271722386     -1.11547323199314      0.00659502328903
  H   0.46020673584492      1.84910921719957      0.66692437453266
  H   5.70922967912328      3.00607206650757      1.11259653127024
  H   7.38026473545840      2.87915964674429     -0.62310801201246
  H   6.16495216403592      2.44154011816303     -1.85919601971392
  H   3.43962113386400     -2.05750171087860     -0.06154267849010
