26
Coordinates from ORCA-job 11099optt
  Br  0.91225410380168      0.11791105774894     -0.08701236765047
  C   2.77982796929961      0.01674431756545      0.04615171216818
  C   3.38885538018397     -1.19354025978766      0.07541131979717
  N   4.72986935096896     -1.11735445211805      0.13233372312761
  C   5.39136090585966     -2.26531226000619      0.05974368050439
  O   4.47113733001532     -3.27088693995616      0.00893138137246
  C   3.17707883217539     -2.67126850484457      0.01621359725536
  N   2.10682935211687     -3.30640601188814     -0.01525712799357
  N   6.67109617957140     -2.04661635380931     -0.00061132871984
  N   6.82841958497652     -0.65901061318022      0.02617439171488
  C   5.62335784081757     -0.11283513361364      0.08955102928392
  C   4.99274307907340      1.17567621546863      0.08109345852563
  C   3.60982294763069      1.22082607127348      0.08521892041858
  C   2.89848944631465      2.55449121093416      0.10685407123712
  C   3.81427889776478      3.72750850370063      0.43442056064318
  C   5.10408878555433      3.64478820887384     -0.36922858879322
  C   5.86878648442420      2.39360139466498      0.03487115011135
  H   2.25436191351411     -4.31360647984433     -0.05129963148038
  H   2.08291814069625      2.50372863359590      0.83012594168524
  H   2.42094523316290      2.70766407600411     -0.86680634535618
  H   4.05682636867134      3.71298481836975      1.50121069642328
  H   3.28587561002989      4.66091793791516      0.23938221082400
  H   5.72317503109465      4.52755504678453     -0.21040950476996
  H   4.86610013552729      3.60323463363532     -1.43613555126149
  H   6.32086031739814      2.52730626041922      1.02352109812923
  H   6.69864077935639      2.18689862209414     -0.64444849719648
