21
Coordinates from ORCA-job 11097optt
  Br  0.39744954939763      1.57246109103872      0.12577605704149
  C   1.90472861231729      2.66346887932743      0.06518710881098
  C   3.14465863326155      2.16193817043111     -0.04477779395474
  N   4.26783132080717      2.97247836808546     -0.07635856516061
  C   5.41802204806470      2.19624460518079     -0.17373538849456
  O   5.03527125629765      0.88814674192570     -0.23468115323577
  C   3.65829507143285      0.78184061502350     -0.15285600724950
  N   3.03131828800518     -0.29592164111474     -0.17382515712325
  C   6.70376627504508      2.51744196015980     -0.20687666552799
  O   7.25771972519090      3.77083544193365     -0.15346931478553
  C   6.54941789399609      4.90458200840036     -0.07831926645336
  N   5.31457771033871      5.15044895092064     -0.01466372836000
  C   4.19647329699428      4.35221383573974      0.00807452649033
  C   2.96017708785506      4.90454509164605      0.11263973398077
  Br  2.79845219084326      6.76754229799144      0.23463251032271
  C   1.70386912998165      4.12308703446834      0.14066021567851
  N   0.52677124225074      4.59335194435883      0.22106584302394
  H   3.65920620111377     -1.09376032092532     -0.25876493816604
  H   7.44339487406694      1.73941522866170     -0.28912077907857
  H   7.24247350139571      5.73957013551435     -0.07480675082490
  H   0.53312609134375      5.61006956123242      0.26421951306611
