21
Coordinates from ORCA-job 11103optt
  Br  1.44533331913729     -0.76661343752427      0.34512934960344
  C   3.26525788146905     -0.40039252190254      0.12048731999597
  C   4.17064589429120     -1.39586778707523     -0.01549321598193
  N   5.51295147098545     -1.07678792648375     -0.13524974333805
  C   5.92396683730906      0.22677051084449     -0.02513772714486
  O   7.27645073289233      0.25026113126305     -0.09282426522170
  C   7.70110618582495     -1.04264175053052     -0.23611261191252
  C   6.65857001417961     -1.87918345970192     -0.28797856531774
  S   6.74399337962676     -3.56225987017102     -0.72115412157017
  C   5.68736237662912     -4.31009480500930      0.52439373706934
  O   5.83324478114159     -5.42713121880960      0.87848533895727
  O   4.71024206528638     -3.49245928978937      0.99661042814190
  C   3.89281673748495     -2.84769987168292      0.04474156881747
  N   3.02693131244282     -3.43872237742159     -0.62393322105392
  C   5.08853492329514      1.26803815638211      0.11976188894908
  C   3.65506051443573      1.03352615760006      0.15863113479984
  N   2.74407252151174      1.92524916670275      0.25019367712648
  H   8.75837854063917     -1.21408980232140     -0.31985095826955
  H   2.96942784201239     -4.43200772914162     -0.39563490962110
  H   5.48360770170505      2.26871658589812      0.20943112581355
  H   3.15404496770017      2.85639013887449      0.27650377015720
