23
Coordinates from ORCA-job 11105optt
  Br  1.40412249601829     -0.93998010412098     -0.62249611538688
  C   3.08753152806449     -0.21018946606001     -0.25928371454359
  C   3.29324953209247      1.10817650334837     -0.11926903921083
  N   4.56977226946726      1.60384810667733      0.16343868369286
  C   4.43673020684819      2.97691341439971      0.44974416235476
  O   5.46452011787276      3.65665421137334      0.96104646627150
  C   6.65380382502520      3.71699755775423      0.22188976907546
  C   7.07978557590237      5.09097528625535     -0.07764504571524
  O   8.12024706644928      5.36842472913761     -0.61640804144402
  C   7.38459049167248      2.62956342800457     -0.05914291055610
  C   6.99255605742262      1.27344749585667      0.12808449048355
  C   5.70899782239806      0.81260639505900      0.17573604719357
  C   5.43619142276096     -0.60831569448105      0.12156111378305
  C   4.20597008712197     -1.10419218323382     -0.09436997616279
  C   3.17798623043645      3.41811809954386      0.29144672369334
  C   2.34831855759080      2.28306964835169     -0.10049937006152
  O   1.16665423140839      2.23733940304928     -0.33295226539681
  H   6.36593232930207      5.86918098568658      0.24710760648260
  H   8.35268710560721      2.83361499582171     -0.50365657120345
  H   7.76101587339686      0.51521256061488      0.08666695126658
  H   6.28677371740639     -1.26911017895682      0.21660262702787
  H   4.03448186291620     -2.16960265975129     -0.16000704702685
  H   2.83308159281918      4.42024746566977      0.47540545538295
