19
Coordinates from ORCA-job 11109optt
  Br  1.94017978651700     -0.75581210788475     -0.79685918129268
  C   3.52542243050054      0.20425619070494     -0.63510234708874
  C   3.59844418372063      1.45374085938451     -0.19444429191211
  N   4.85421450591156      2.15280160001569     -0.16095692059514
  C   4.53561586480602      3.41439133764033      0.32387103719829
  O   5.48057199720375      4.35328086596477      0.42803149344675
  C   6.61584226845562      4.23488620715322     -0.37126988130275
  N   6.85962360815995      4.95098408958775     -1.35408683247103
  C   7.61596280656108      3.23370435857501      0.16068288062809
  O   8.76240094155426      3.46407370273109      0.30042569735685
  O   7.08771717106070      2.04102707664736      0.58858139057535
  C   6.03713369047918      1.42051937115305     -0.02334311113813
  N   6.18533289636099      0.22264751281534     -0.35713310195559
  S   4.96994372133415     -0.69231182439412     -1.07026557985920
  N   3.31252270396305      3.63451512831274      0.58714108182502
  C   2.61274512390266      2.43098406596454      0.32512009319475
  N   1.37877203508493      2.21576900532389      0.46856879669043
  H   6.09961519865974      5.60349423860957     -1.55433464462146
  H   0.92093906576414      3.05204832169506      0.82937342132129
