19
Coordinates from ORCA-job 11117optt
  Br  1.22464191551274      0.93283961203085     -0.07595077700683
  C   2.93895377611700      0.21743076548852     -0.07519109252976
  C   3.24961528537495     -1.09153923205615     -0.07531222306483
  N   2.75830752654287     -2.41105033779888     -0.07520814277988
  C   1.57141210240358     -3.16062794054242     -0.07649179918472
  O   0.43446459867851     -2.77890315390060     -0.07848235846000
  N   2.07898233924547     -4.44261088735217     -0.07501687502738
  N   3.45538373148718     -4.54084201454346     -0.07349285835808
  C   3.81672157611495     -3.31944387604049     -0.07363025786924
  N   5.01522516721023     -2.58884822303847     -0.07289549291837
  C   6.41588236479971     -2.52311041420657     -0.07062658823403
  N   6.83817029192935     -1.29141403673450     -0.07069202954214
  C   5.70531162370886     -0.48565199121346     -0.07259804980091
  C   4.63330399964864     -1.29466399656031     -0.07401108579872
  C   5.38447486354284      0.92851092791568     -0.07305773157886
  O   6.04442078259212      1.90526942619676     -0.07251973100011
  O   3.93207066881863      1.12645352434629     -0.07435920817705
  H   1.51854904084221     -5.27692727787556     -0.07598611789299
  H   7.03110834543012     -3.40687087411504     -0.06947758077612
