18
Coordinates from ORCA-job 11112optt
  Br  1.32537453360972     -0.24877716996861     -0.30914777750197
  C   3.16134390296603     -0.10168624575994     -0.11690200491435
  C   3.95359582040141     -1.17003412192315      0.10155317640103
  N   5.28149639494286     -0.91133227513417      0.21856062376645
  C   5.81728674508283      0.31169642158479      0.12030485825081
  O   7.15376078882977      0.14202156778565      0.27196065307878
  C   7.38217666909067     -1.20662554452467      0.44990309247900
  O   8.68916844346270     -1.46893890408139      0.59931539623740
  C   9.06980484333612     -2.75696210226607      0.79267075153671
  O   8.31730446739961     -3.67290916438174      0.84391148541950
  C   6.23001985252114     -1.90222495330215      0.42278866202228
  S   5.41049603344600     -3.43716649554742      0.51102030577912
  C   3.76408460789555     -2.64786604784506      0.24974876210793
  O   2.75594738401593     -3.26811346252098      0.21542828256535
  N   5.17340324080307      1.39150375333756     -0.08066724720936
  C   3.77644263156201      1.28439549459087     -0.21215350903961
  O   3.08220972637341      2.24606361859966     -0.39697171455346
  H   10.15708391426114     -2.79404436864315      0.88867620357439
