23
Coordinates from ORCA-job 11127optt
  Br  1.08288484935354      0.19377916725202     -0.32337288780928
  C   2.94479878835973      0.37407309212070     -0.22862139702797
  C   3.59188929856483      1.51801448510475      0.04532389468950
  N   5.01762366114668      1.44494638598235     -0.00339573726840
  C   5.85688329586840      2.53886116143382      0.16716149191054
  S   7.39384838267164      1.99954994483575      0.84356373351759
  C   6.90849010238473      0.34171424076049      0.69362046531846
  C   5.66133557228741      0.21878813740287      0.23101262147342
  C   4.93931883182599     -1.01909530770515     -0.10936456915331
  N   5.38850455246065     -2.20229617563198     -0.12062759691736
  N   3.62538131039162     -0.79618823728578     -0.49072079712292
  N   5.68466497483159      3.76424452031150     -0.14783982837488
  N   4.51802824662718      4.04632169591142     -0.94308836734262
  C   3.37111511035967      4.07525167482461     -0.08867782661683
  N   2.72984897542880      5.11801493541624      0.18661791832583
  C   2.94162655333021      2.76338903705527      0.53375437155853
  N   2.03346982321975      2.68844356265198      1.40646647618346
  H   7.59010827704336     -0.45823520164387      0.92937258737572
  H   6.37086067280873     -2.23886295547944      0.13197965440764
  H   3.09779000536866     -1.62500207300917     -0.72347305303372
  H   4.40837119265468      3.30288683430872     -1.63501844368815
  H   3.13515779975336      5.91341364453646     -0.30710896107073
  H   1.66799972325869      3.62998743084642      1.58143625066548
