17
Coordinates from ORCA-job 11125optt
  Br  1.12248387781397      0.08862399631695     -0.93663117278093
  C   2.87143465954721     -0.00150117478455     -0.31067459471454
  C   3.53165495943063     -1.16199187227876     -0.09965566182765
  N   2.99338843050319     -2.45295996060894     -0.16647716472674
  C   3.95099987779621     -3.46924160453484     -0.26077041921277
  S   5.58319688418999     -2.87148962273081     -0.05031212498999
  C   4.97679317792463     -1.21352990260700      0.07747227182717
  N   5.77714379494559     -0.24079165422945      0.22390442125066
  S   5.25875357070062      1.32143204595260      0.25857681871143
  C   3.52597173533672      1.31261953622491     -0.12282413218320
  O   2.96165849609473      2.36680092896335     -0.22023933290200
  N   3.71535066502300     -4.70452287809817     -0.40851253323341
  O   2.37055202567298     -5.05097226636291     -0.55926638704533
  C   1.37716519296511     -4.27282641872408     -0.06453709114744
  O   0.26353489582829     -4.66660214317139     -0.01540668847699
  C   1.74935683603577     -2.84930486527837      0.36085058852027
  O   1.04956092019135     -2.15974214404853      1.02550320293145
