22
Coordinates from ORCA-job 11124optt
  Br  1.20496046667877     -0.01230750704638     -0.78446277526015
  C   3.00955167776422      0.11857653655520     -0.28222896376783
  C   3.57450944486705      1.32061096448526      0.13581293774199
  N   2.82031682773413      2.49104092882591      0.34869599268264
  C   1.71734553436729      2.55945690329415      1.22194801564926
  O   1.28852359159181      1.66721726951748      1.89008000209529
  S   1.16805948787167      4.23654184718986      1.10259916212202
  N   2.41529350629735      4.71517601592361      0.08489514459861
  C   3.16546653227383      3.71742405036203     -0.18753006018402
  C   4.42620908585607      3.81171444922475     -0.98527700750600
  C   5.62939777048333      3.62353547679932     -0.08159159221464
  N   6.59725359483569      4.39653042284950      0.08114222025506
  O   5.62408384464036      2.48582168481452      0.69144709438514
  C   4.95809154812946      1.35692688935513      0.30083679066530
  C   5.69295104509665      0.19302395724849      0.12932004407189
  N   5.13635997844657     -0.96337336349515     -0.20112129730982
  C   3.82867846483842     -0.99704041580148     -0.41520702658662
  H   4.47232795843721      4.79134283728657     -1.45105768007704
  H   4.43210307457849      3.04531246107723     -1.76544671614362
  H   6.49623680046028      5.24060970908494     -0.47428706957034
  H   6.76527520221649      0.22311027399121      0.28281959117034
  H   3.39900456253479     -1.94225139154221     -0.72338680681744
