20
Coordinates from ORCA-job 11137optt
  Br  1.12100909767532      0.20377997394034      0.09714021530832
  C   2.95434483133640     -0.08679241808190      0.09687762841655
  C   3.56241889895765     -1.27373170778257      0.09618079227855
  N   3.10329692000952     -2.59021318411001      0.09544639019833
  N   1.80646006952256     -2.96157636709183      0.09561787059765
  C   1.83900753984359     -4.27694873978744      0.09523007757374
  C   3.15325442665639     -4.79531011642084      0.09433591400955
  C   3.93253623853059     -3.67749111237928      0.09464317543213
  O   5.28604854236317     -3.57812893155984      0.09417348687155
  C   5.78488938524555     -2.32111568249017      0.09517911140722
  C   7.06171549427911     -1.81163829494208      0.09540705669443
  N   7.00400287897864     -0.45036907393247      0.09650645608826
  C   5.73520448246158     -0.13413497770899      0.09680392160891
  N   4.95137468682374     -1.25695437981754      0.09605840425824
  C   5.06391127935415      1.16357033390168      0.09765115091875
  O   5.56262433149895      2.23642469592311      0.09826302996500
  O   3.67114799305972      1.07188206657308      0.09748498558795
  H   0.91178467880676     -4.82692703384093      0.09540483136175
  H   3.48325808548384     -5.81787771895982      0.09371943387429
  H   7.98971013911274     -2.35644733143247      0.09487606754881
