22
Coordinates from ORCA-job 11136optt
  Br  1.07807603607066      0.06682774955765     -0.04454968448258
  C   2.93477045593354     -0.10007215406529     -0.03645870081530
  C   3.64702769496516     -1.26740042716466     -0.03419063383738
  N   3.15675449363670     -2.57225103782338     -0.03492799497761
  N   1.87589797908867     -2.92379190960276     -0.03460462013724
  C   1.88745021116331     -4.26077359392074     -0.03430345278607
  C   3.19494683461316     -4.77343189161011     -0.03465600561883
  C   3.99964308090341     -3.65722202555281     -0.03472919963186
  N   5.36656681480874     -3.53829838888882     -0.03406900745826
  C   5.87062625010845     -2.36435080736041     -0.03233792347109
  C   5.07736797952309     -1.12770991005231     -0.03143242243103
  N   5.72188214005076     -0.00276641723233     -0.02881297900448
  C   5.01494780630024      1.18480709821505     -0.02800769194669
  N   5.48834806977268      2.35994849554073     -0.02316470133963
  N   3.60938763339506      1.06156800553619     -0.03353369877110
  C   0.66957861227435     -4.99982475787515     -0.03324042478819
  C   -0.33498157813480     -5.65244020877644     -0.03092927549859
  H   3.51106902078317     -5.80066423741131     -0.03447068126865
  H   6.94913163684059     -2.24390328407010     -0.03147886417965
  H   6.50280453254445      2.31915999602955     -0.01987573425095
  H   3.10059991014237      1.93548274021876     -0.03465604007606
  H   -1.22989561478379     -6.22789303369128     -0.02957026322876
