22
Coordinates from ORCA-job 11138optt
  Br  1.07916825233358      0.07292316662355      0.27951966587610
  C   2.91391582711897     -0.06025319407167      0.02460368167677
  C   3.58829207558278     -1.19865050409069     -0.23845290304322
  N   2.99805070649836     -2.46230238883014     -0.39595852822880
  N   1.91540364774474     -2.69474507875009     -1.16348035684576
  C   1.68300952476087     -3.98536369798665     -1.03211254058192
  C   2.62043884676458     -4.62178423758337     -0.18846735254834
  C   3.44547724941943     -3.60323266684580      0.19788579226609
  O   4.53803841305794     -3.55273897562467      0.98862381559507
  C   5.75065207223183     -3.51979986401320      0.25079797073261
  C   5.91067886900440     -2.27288502490579     -0.60882228704099
  O   6.75031056744828     -2.21699447036454     -1.45615922469263
  C   5.02335339096560     -1.05871623604981     -0.32623858932427
  N   5.64679022121790      0.04984967638125     -0.18494882448702
  C   4.92415172499814      1.21203140981276      0.04792990626299
  N   5.38097936472023      2.36783547608101      0.19168795023571
  O   3.52958107700546      1.10570210816392      0.13282012486500
  H   0.85088393366836     -4.42915720040655     -1.55424792110203
  H   2.68591444660301     -5.65672098246382      0.09554521162835
  H   5.84241793514976     -4.39622620442326     -0.39464386125035
  H   6.56296146458080     -3.52514162284372      0.97842368163304
  H   6.39353038912492      2.33737051219130      0.10969458837361
