21
Coordinates from ORCA-job 11134optt
  Br  1.21352847815435     -0.05876557844187      0.63222511492014
  C   3.00957504573150     -0.13839611028489      0.16523466470320
  C   3.70128032687155     -1.26610246144856     -0.12404628198790
  N   3.12564901756793     -2.54019098160851     -0.26986659171482
  N   2.01234622841747     -2.70077080115236     -0.99389557663546
  C   1.71719470546561     -3.98536089790854     -0.90666323579733
  C   2.64697498464063     -4.67790591217168     -0.11345613418360
  C   3.55063969357816     -3.72067565743018      0.27482040117993
  C   4.75422872535040     -3.91249148429360      1.11951382134144
  O   4.80399865712690     -4.75171497589233      1.96358554253484
  O   5.82201652593706     -3.11066600346565      0.90223778651373
  C   5.95267768612702     -2.36175008726298     -0.30187469667857
  C   5.12000042641633     -1.10689191759896     -0.24298213646068
  N   5.72381318923664      0.03125743551528     -0.24218714117138
  C   4.98347296028512      1.19035058176604     -0.16521990890856
  O   5.36890265839789      2.29718542591210     -0.31175721099521
  O   3.60473023830270      1.03642351675365      0.16852155035014
  H   0.85090051537387     -4.36758017667912     -1.42128612269743
  H   2.67932280830597     -5.72164403650057      0.14555042945283
  H   5.66922110144902     -2.96782271296215     -1.16655763350817
  H   6.99952602726384     -2.08448716484512     -0.37189664025714
