19
Coordinates from ORCA-job 11141optt
  Br  1.08356699448795     -0.11544106351056     -1.32236508666817
  C   2.65088388238380     -0.00016312893160     -0.20055964130245
  C   3.38146721057779     -1.24611080364730      0.01943679043543
  N   2.81980427835029     -2.51117518773539      0.02934127702136
  N   1.52845019855311     -2.60012518584471      0.46848671520589
  C   0.99711726230353     -3.75756282470643      0.40742759485351
  C   1.68131170413458     -4.94173959539544     -0.14378185635306
  N   1.10391268387457     -6.00248605691987     -0.52941410901004
  N   3.07177821432505     -4.82853210726711     -0.18945675847226
  C   3.58493947748499     -3.66584321973985     -0.12498101919337
  C   5.11214355332045     -3.51704816423086     -0.10230501906003
  O   5.79753381584662     -4.49560353438552     -0.15777225081114
  N   5.62249799518366     -2.23533867618498      0.01055121889795
  C   4.75389624474755     -1.27220987258318      0.03555528930064
  N   5.39796051513583      0.02922204915450     -0.00976509452341
  N   6.02656699253551      0.91858431309860     -0.00038508406252
  O   3.04291265962454      1.06228790838098      0.17283562795984
  H   -0.01637413896193     -3.83637093928841      0.78594543586534
  H   0.09463045609208     -5.92634391026283     -0.41079403008351
