22
Coordinates from ORCA-job 11145optt
  Br  1.01410894144789     -0.11166988027133      0.37622402377046
  C   2.85918035639832     -0.07620509978480      0.13799361893556
  C   3.58696442350359     -1.18321474712130     -0.07918385664291
  N   3.27596244335813     -2.52067360274472     -0.17497424123157
  N   2.18553523984912     -3.33084539709805     -0.10499231099973
  C   2.73454247976908     -4.50505527205687     -0.30154107443930
  N   4.09889527329721     -4.53547847684422     -0.49381353161443
  C   4.38609539620633     -3.27119175087373     -0.40340139591650
  N   5.48153254620899     -2.45791985296596     -0.45593011245928
  C   5.03645899257797     -1.14258136201080     -0.27375203737806
  C   5.64851864000126      0.04509442644920     -0.23234472829374
  C   7.09872340272257      0.38511485746286     -0.39128943089924
  C   7.91334137416367     -0.77517859190079     -0.73689519041127
  N   8.51949322033030     -1.70878712345678     -1.00607661417836
  O   4.92283204685062      1.17135561481315     -0.01131258571187
  C   3.54706389673619      1.21090391212357      0.19060966652235
  N   2.96977672553397      2.30742991621939      0.40262872506222
  H   2.13560290740302     -5.40130088325730     -0.30884981085898
  H   6.41529044312134     -2.74580780872817     -0.69844232404947
  H   7.47898255508019      0.82387526228258      0.53528357960106
  H   7.20963754028637      1.14098416527811     -1.17304853256143
  H   3.62746115515385      3.08315169448600      0.40110816375451
