17
Coordinates from ORCA-job 1114optt
  C   2.50875197764940     -0.63339516503817     -1.34957317809298
  C   2.29602193864746      0.09069746628114     -0.01921869437380
  C   2.89034332784096      1.46203147560166      0.00370481278760
  C   2.26477490433787      2.63256729936722      0.20512067119104
  C   3.23721901142149      3.72930859700794      0.15277924640927
  C   4.45701929921464      3.22662924424518     -0.07779994693654
  C   4.35612522885010      1.73573243989672     -0.20211917930858
  H   2.03897947274951     -1.61725366095892     -1.33640445099148
  H   3.57073673018583     -0.77378622439342     -1.55509243860197
  H   2.07949625631652     -0.05980667620712     -2.17212697516442
  H   2.73635772640402     -0.50896885369437      0.78416799018853
  H   1.22810351315053      0.16517262784564      0.19513695518064
  H   1.20489670187998      2.75505102253958      0.38431862233674
  H   2.99363415794772      4.77428148180998      0.28378200370681
  H   5.37870368689491      3.78136358815038     -0.17158054227356
  H   4.70046779851383      1.39051811842876     -1.18319636439678
  H   4.97036826799521      1.21485721911780      0.54110146833948
