20
Coordinates from ORCA-job 11148optt
  Br  1.10058791056654      0.01281415645244      0.34809173161767
  C   2.95566619162277     -0.01633127526212      0.09762324779989
  C   3.65560600949308     -1.14519481869843     -0.08137570491883
  N   3.12715655441725     -2.43530217033261     -0.16845054695021
  N   1.89181417702462     -2.82181006219317     -0.59863001330746
  C   1.95087578158889     -4.11941011960997     -0.46725475330553
  N   3.13320250537167     -4.62239625993715      0.00660569412444
  C   3.83321897015951     -3.53896251762899      0.16458952269008
  N   5.11836035881490     -3.38933783443537      0.60722911937871
  C   5.84379524962599     -2.23890136483063      0.39399464671988
  O   6.99574072702335     -2.12995562917914      0.67718981898337
  N   5.07155660156616     -1.18131145774629     -0.17961626908162
  C   5.80373432725924     -0.15408730885221     -0.82952599429689
  O   6.83432153125807     -0.35104001145586     -1.38465554655082
  S   5.13853986773087      1.48014408048661     -0.75541701549586
  C   3.61704450539522      1.30139632255901      0.15192817308270
  N   3.07279114423678      2.28947133115750      0.71099457718441
  H   1.11540878991172     -4.74655391527057     -0.73188638474548
  H   5.61923083660141     -4.18756439307350      0.96859142841729
  H   3.64234796033192      3.13333324785048      0.67097426865426
