20
Coordinates from ORCA-job 11146optt
  Br  0.97503696140051      0.01132345827021      0.01854302076856
  C   2.83579983783386     -0.15690668370045      0.03040446606332
  C   3.54647415309844     -1.31369012423019      0.03438429526925
  N   3.03850869662770     -2.61671638070767      0.03407632087118
  N   1.73563045690528     -2.99458588183431      0.03365992928381
  C   1.81278241674454     -4.30198234601947      0.03442232348752
  N   3.07043122905432     -4.82382787260239      0.03562722026696
  C   3.80096976003532     -3.74613999092744      0.03548345850152
  N   5.15917217047306     -3.65202626721820      0.03688587827288
  C   5.74076521144892     -2.42144618878388      0.03916554376392
  C   7.17240086548581     -2.39966277163636      0.04123183864620
  N   8.31527685524761     -2.48213351063535      0.04235129230050
  C   5.00371063036649     -1.27162605181675      0.03895506590033
  N   5.71133871552000     -0.09037595863016      0.04209428613901
  C   5.05410482335730      1.00241477898240      0.04099646011037
  C   3.57294165015222      1.11491930424987      0.03496075749036
  O   3.05094428251608      2.20643193305943      0.03396529297457
  H   0.92652188476443     -4.91532450780973      0.03451691566510
  H   5.70587270904447     -4.50033648437342      0.03732057175256
  H   5.59631668992364      1.94369154636388      0.04395506247207
