24
Coordinates from ORCA-job 11157optt
  Br  1.20129120999317      0.06184379774026      0.16040949884132
  C   3.05434819096007      0.18850445484612      0.05248534049879
  C   3.76804592185636      1.31520281756907     -0.13230458787771
  N   3.23536446729937      2.60150422231212     -0.33767817646074
  N   2.08556520936716      2.87679576481031     -0.97562362209699
  N   1.98008868006764      4.15561407893426     -1.03428181781782
  C   3.06690488409158      4.73297788844786     -0.45579435872299
  C   3.89216553889927      3.74228379191066     -0.00516728998550
  C   5.24750903708440      3.64380051326568      0.59946277179550
  C   6.01293335727777      2.51128482524346     -0.12114749873141
  C   6.25018444729823      2.85498268741091     -1.52553739046682
  C   6.41735728751744      3.14222869510662     -2.67498399503690
  C   5.21369293646989      1.22380906155626     -0.02981634235053
  C   5.79251918534548      0.03183769804469      0.16410893870294
  C   5.00698248870727     -1.18816189511688      0.24395493202312
  N   5.38196821244840     -2.38439498499851      0.35057438040660
  O   3.63171166365850     -1.00351788757895      0.21587166844171
  H   3.18808415308794      5.80100789428478     -0.41162588627314
  H   5.18484644652208      3.40209527529927      1.66345625226687
  H   5.77805616130049      4.58755134170729      0.49293351561172
  H   6.97430241173644      2.35188060967151      0.36969510125681
  H   6.57037288792244      3.39377653991357     -3.69767408497290
  H   6.86615867518546     -0.06442004036931      0.25387341095420
  H   6.39554654590305     -2.44148715001108      0.36880923999390
