24
Coordinates from ORCA-job 11158optt
  Br  1.03608082225640      0.00567944118189      0.20497075998361
  C   2.91089799811594      0.03435395901458      0.08397358801403
  C   3.68147579256830      1.18042749225468     -0.08322872366253
  N   3.17918003089767      2.47924471023141     -0.26880468183758
  N   1.97120774959727      2.78220626137735     -0.79039992961690
  N   1.91437099302431      4.05503771787702     -0.90193996554394
  C   3.08309412487782      4.61062940556224     -0.46782559151643
  C   3.91271449344826      3.60852522775287     -0.06404525597902
  C   5.29874061447105      3.49217390923513      0.46186092068608
  C   5.95955843686982      2.26311610990212     -0.15602743078780
  O   6.18603657899410      2.48226892807812     -1.56183491347948
  C   7.26913042566746      3.20268061501404     -1.87212380316166
  O   8.03915142643948      3.66477529655698     -1.08423864323997
  C   5.07571057371605      1.05191997739176     -0.03547329690862
  C   5.61746505387138     -0.20952938758962      0.12740293748671
  N   4.89091054977658     -1.31594906586112      0.23970927424053
  C   3.57515050360471     -1.18405491378013      0.22408761372781
  H   3.24399744512481      5.67426699977695     -0.47967112094282
  H   5.28347895483394      3.36316020857357      1.54770374233741
  H   5.87976248624207      4.38544883356249      0.24200234829629
  H   6.92199609624040      2.07674246104710      0.31915639460726
  H   7.34678540845814      3.30093087713923     -2.96055483512016
  H   6.69574415317126     -0.32733935809894      0.16539709714799
  H   2.98635928773270     -2.08671570619975      0.33690351526918
