20
Coordinates from ORCA-job 11152optt
  Br  1.06599564019106     -0.08892740182299      0.07382248616841
  C   2.94240279755230      0.13565944775319      0.07406205058074
  C   3.57867566866514      1.33823390240799      0.07506921372245
  N   3.01158641924073      2.62078105613310      0.07620753562035
  N   1.69742026284004      2.97048497525739      0.07660219972125
  C   1.71853122249573      4.25233630996795      0.07762630854666
  O   2.96198672397722      4.78502582052298      0.07796384490447
  C   3.79463673496179      3.73407221078646      0.07705783518249
  N   5.07917792585081      3.81435198560448      0.07704596003598
  C   5.67982404636015      2.59923134608410      0.07602773413561
  C   5.02018601252341      1.39600483565147      0.07504438736116
  C   5.78774027718969      0.14137778129535      0.07392188594132
  O   7.00438670535256      0.09269588206443      0.07386485200736
  C   4.93518514089371     -1.05527113530107      0.07302858458351
  N   3.64847477247384     -1.02510185732870      0.07310490205661
  C   0.51096884558225      5.11442326551743      0.07830605945752
  O   0.57892804694616      6.30595705132030      0.07895005150201
  H   6.76332717769118      2.59088340606679      0.07597370809455
  H   5.43198774178825     -2.02039730048999      0.07218471330141
  H   -0.42942216257608      4.54317841850932      0.07813568707615
