22
Coordinates from ORCA-job 11150optt
  Br  0.95257597874409     -0.10813148253932     -0.13017731554531
  C   2.81317959514269     -0.17128552376008     -0.06935642316349
  C   3.51250924642883     -1.33339011600924     -0.01103721831409
  N   3.14896560778452     -2.66032400350153      0.02806416790186
  N   2.01571614589430     -3.42411193155286      0.03294037554213
  C   2.53893834882567     -4.63019716458457      0.08599941039129
  N   1.73474840301327     -5.74398376761328      0.10987937435417
  C   2.17904250837489     -7.04155882847067      0.18985445374379
  O   1.42883075623920     -7.97976421378956      0.22191734153627
  N   3.90936434367890     -4.72945292944654      0.11754119602479
  C   4.23790673347385     -3.46694345772467      0.08032035244415
  N   5.36206078798812     -2.70490382516426      0.08282669548842
  C   4.95524011221222     -1.36387472988749      0.02348018205931
  C   5.64091200741677     -0.20579123950091      0.00047121053011
  N   4.92687615127655      0.95424152129665     -0.05288304224018
  C   3.53525804262942      1.09376316201157     -0.09052814491138
  O   3.04056331962698      2.19998404899108     -0.13607348572368
  H   0.73524770264390     -5.59585237364221      0.08382269957060
  H   3.27253217082138     -7.12044733052795      0.22002761636138
  H   6.30210105236397     -3.05612732698543      0.08456650371323
  H   6.71742593674010     -0.12815971059831      0.02281154405863
  H   5.41300504868034      1.83931122299964     -0.07046749382201
