21
Coordinates from ORCA-job 11162optt
  Br  1.13232429065076     -0.11131607170933     -0.00231315947277
  C   2.99274807494398     -0.22525495113517      0.00030464956421
  C   3.70038304934804     -1.38230794519332      0.00163511923780
  N   3.36310489053512     -2.72828464830799      0.00192766332169
  N   2.17661326191701     -3.27740146636778      0.00181266215904
  N   2.12707511838304     -4.55537252567724      0.00231139588005
  C   3.30725945023644     -5.25481007771306      0.00298610465409
  N   4.51493738865415     -4.78093568290239      0.00325146836263
  C   4.59183405964308     -3.43366858235736      0.00279235643904
  N   5.62934817203954     -2.66068743306272      0.00303782090414
  C   5.14009067598833     -1.36961361451760      0.00240890194268
  C   5.83603404072965     -0.19163810742998      0.00222646718300
  C   7.25095582351073     -0.13148330070849      0.00233491172640
  C   8.44567370798602     -0.01717981734396      0.00195054790743
  C   5.09223480987727      1.06689367537761      0.00179769700666
  N   5.52100260893504      2.26269874623353      0.00221659073504
  N   3.68240079605691      0.92624060059298      0.00054806495953
  H   3.17926788032011     -6.33054413169806      0.00326537390917
  H   9.50657765592520      0.06075265162257      0.00170908653071
  H   6.53698614407897      2.27968218301145      0.00299538498024
  H   3.18614810024055      1.80823049928634     -0.00019910793076
