26
Coordinates from ORCA-job 11169optt
  Br  1.07576230276594     -0.67628689431823     -1.13076524639554
  C   2.87219001042500     -0.42935266256114     -0.57988244365226
  C   3.60896942178802     -1.52631458586131     -0.18168131145294
  N   3.05422597256396     -2.76437078829197     -0.17280371107707
  C   3.62758046074150     -3.91087072678773      0.45380251897224
  C   2.77651564406547     -5.07288288577821      0.82554466115890
  C   3.84596125855921     -5.23586929293742     -0.22262495286724
  C   5.17875486147500     -5.73529072126500      0.27843867787016
  O   5.46792736226817     -4.94317121586381      1.42953587263201
  C   4.86712927938761     -3.67279146916247      1.28735711124929
  C   5.74962139523046     -2.68701020107999      0.53519916157059
  C   4.99891435978074     -1.41546065915516      0.23530647115207
  C   5.61210209235380     -0.22484580009109      0.32668079625050
  S   4.95454119622286      1.30736338343643     -0.05270955690991
  C   3.29003526262631      0.94487777706865     -0.60894389382302
  O   2.62144907258841      1.89082649641275     -0.95049083020418
  H   2.07438509925345     -2.81295005630780     -0.41026513320053
  H   1.75385313184009     -5.05720554707770      0.47227790669993
  H   2.92676844750437     -5.52968719743435      1.79608910142506
  H   3.55982102086548     -5.38660105940615     -1.25332770591982
  H   5.17208121279767     -6.77630969250810      0.60204043085668
  H   5.95048257367255     -5.60936664796467     -0.48794531168833
  H   4.64028106419182     -3.30396704071980      2.29037160802679
  H   6.05832498294686     -3.16163910671424     -0.40260215358343
  H   6.65033141159388     -2.47079341804821      1.10823707216712
  H   6.64399110249132     -0.17902998758326      0.65516086074293
