32
Coordinates from ORCA-job 11171optt
  Br  1.14612768994277      0.15234184014257     -0.48540134219587
  C   3.00156321098998      0.04709913753985     -0.22847040132787
  C   3.68209004358327     -1.10667917785542     -0.31027769231444
  N   3.27325169612258     -2.40244132180131     -0.63537003092984
  C   4.32226419657538     -3.35187251502309     -0.23000687498604
  C   4.03861068187913     -4.09613279282319      1.08201518578062
  C   4.77568988104337     -5.42475775924886      0.92096537190149
  C   4.47218357949705     -5.79270150074368     -0.53470905258426
  C   4.62368988792828     -4.46508881983092     -1.27862528625012
  N   6.02023531348001     -4.21841763821045     -1.65686031343311
  C   6.24556662862568     -2.78335749833022     -1.56071624335109
  C   5.60476862607766     -2.47433158231745     -0.20518328863590
  C   5.09464167404961     -1.07295834738033     -0.05057438678632
  C   5.73713149607996      0.06608012260883      0.26146768341578
  C   5.01544682002505      1.33241034828765      0.32805952374669
  N   5.47561610170953      2.50097114803707      0.58182263811018
  N   3.65212666945281      1.21700059732786      0.08072521989575
  H   2.33151603088225     -2.64661353351388     -0.36060746763747
  H   2.96338010334872     -4.28764790456512      1.15765574307829
  H   4.33437340537940     -3.51513120438299      1.95716601580850
  H   4.45590856388759     -6.18145550702818      1.63604430389670
  H   5.85122180377951     -5.27801582234404      1.04194970633478
  H   3.44267055221055     -6.15129415799390     -0.61677223797471
  H   5.13387130630144     -6.55952125774460     -0.93691172362517
  H   3.93900511789213     -4.36753201668784     -2.12640653838067
  H   6.24366163525076     -4.59361820398057     -2.56963160644013
  H   5.73724350078944     -2.20420559052534     -2.34455797530489
  H   7.30921586658781     -2.54647050108498     -1.58638189276909
  H   6.28015283447647     -2.77479125174984      0.59635169280251
  H   6.79854799202571      0.08483866602664      0.47297392458515
  H   6.47539262367423      2.46242737339569      0.74827530607592
  H   3.12983446645179      2.07886667180008      0.13399203949466
