22
Coordinates from ORCA-job 11175optt
  Br  1.78772050580820      0.13777586309324      1.40996279102975
  C   3.06535176688842     -0.17354751284682      0.07632532691169
  C   3.73077316602670      0.83009589783141     -0.52727036424912
  N   3.90975848652262      2.18170231833390     -0.14152330924917
  C   5.20091717736064      2.52974322683935     -0.47949835909398
  C   5.71774808622823      1.62491742407187     -1.36200151229146
  C   6.99541650452516      1.25953732626070     -0.85293334520804
  C   7.41607612346814      2.40039234011652      0.02337391419189
  C   6.33179644290442      3.16822316620537      0.26369003137878
  C   6.95822999603730     -0.11585708550129     -0.62891355342652
  C   7.91293291086566     -0.90150453281515      0.06181407702431
  C   8.71485754434655     -1.57539958842143      0.64749520137322
  C   5.58596082545195     -0.56730488073850     -0.92855001882335
  O   4.97733833383844     -1.63107231767809     -0.38546396503846
  C   3.58469952998674     -1.54102127782623     -0.11393333737491
  N   2.92319620879421     -2.58799201482001      0.07507368439144
  C   4.84896411376301      0.49457801394255     -1.36748486138046
  H   3.35684622819233      2.60407932461556      0.58863464636381
  H   8.40179357577694      2.55397751289348      0.43741494532132
  H   6.28292367715074      4.05441126731042      0.87677794417242
  H   9.42534733815613     -2.17400032215912      1.16585508681411
  H   3.50935145790738     -3.41673414870774     -0.00784502283727
