27
Coordinates from ORCA-job 11173optt
  Br  1.60393873848604      1.59168701352467     -0.22264096300421
  C   3.13891824056472      0.49730736223486     -0.47361442557093
  C   3.08552609177095     -0.82323676111037     -0.03977477771469
  N   2.07981278071064     -1.49791728310830      0.61653952752973
  C   2.39697086642313     -2.92337793352600      0.67215515145358
  C   2.40685387867444     -3.45563578772158      2.10593027491915
  N   3.71575898450873     -3.02841541058501      2.57617458104505
  C   4.65183317076294     -3.42171551856244      1.53174961333467
  C   3.91101893283697     -3.00006669020632      0.25459725180894
  O   4.02396898596440     -3.99614559164673     -0.75598522077611
  C   2.81784873255782     -4.50609722639909     -1.11539385871974
  O   2.70935526528627     -5.38005971952412     -1.91230185776727
  C   1.70115965276076     -3.79151248370336     -0.36764232361175
  C   4.20385188604222     -1.61795393312329     -0.26093317057706
  C   5.32039971320594     -1.08678598133898     -0.87261958643858
  C   5.26216932235502      0.24811240382611     -1.25893106170439
  N   4.18707389473982      1.01236300362731     -1.06230943218004
  H   1.12568614973653     -1.20346276547104      0.46894196121086
  H   2.29484573531984     -4.55105361810539      2.08551875070938
  H   1.60632631483774     -3.02701925504708      2.70757066351846
  H   3.95896224130103     -3.38760920048485      3.48930762359781
  H   4.81700849171467     -4.50635679904412      1.47397258307977
  H   5.61143957957013     -2.92028380620256      1.64889562220846
  H   1.01619588342503     -4.53163368460197      0.04229716994586
  H   1.15490039876692     -3.19336345846474     -1.09840602341400
  H   6.20145708376750     -1.68375438596579     -1.06758343963250
  H   6.10071898390979      0.72398751073022     -1.75051463325045
