24
Coordinates from ORCA-job 11186optt
  Br  1.14181998155232      1.20673698063781     -0.48192061419517
  C   2.87431776917175      0.53235519261235     -0.31981789542636
  C   3.16862370812280     -0.76648900100900     -0.39877558331733
  N   2.34521612161677     -1.88092441114525     -0.57586532185425
  C   3.15471382177788     -3.08991977252046     -0.62573228563857
  C   2.93901754238068     -3.96156152115255      0.62510245942220
  O   3.65303436494389     -3.28434728894931      1.62132020464245
  C   4.91502883541662     -3.34861836069927      0.97053867150335
  C   4.63753552351441     -2.64615966646665     -0.38372549085147
  C   4.54895113773871     -1.15210385899104     -0.26289618648000
  C   5.50579029860419     -0.23855326080043     -0.06803943137211
  C   5.15549300662773      1.17809933681203      0.01467764026394
  N   5.91089394491782      2.16993346639075      0.20344470459163
  O   3.81375961360456      1.48031735678128     -0.13892371081989
  C   4.98097902516175     -4.83221697653721      0.62294144220206
  O   5.91013415210482     -5.55383489823469      0.47229648867450
  O   3.68020294904851     -5.17574395187763      0.42435282103135
  H   1.61352239297896     -1.79267217878637     -1.26487529287945
  H   3.00341965872895     -3.66259326080600     -1.53872961355142
  H   1.91993616291678     -4.17988362424900      0.92142791305036
  H   5.72265478094101     -2.96266428861754      1.58008715852786
  H   5.33653613136819     -2.96358698652273     -1.15564643219855
  H   6.55191636966180     -0.49754643626608      0.02913773097794
  H   6.87550270709904      1.86897741039703      0.30262062369694
