21
Coordinates from ORCA-job 11180optt
  Br  1.27021152634628      0.16103822558534      1.01239912952438
  C   2.92388183958756      0.08836611623576      0.12834342737959
  C   3.42959928744736      1.16437131387847     -0.49903754693610
  N   3.03768337013195      2.53303070185563     -0.39035948630752
  C   4.14533446615307      3.30031487735068     -0.59339522235110
  C   5.13880982046588      2.51971610872494     -1.10402667113432
  C   6.34450609603596      2.71769030231392     -0.38576137609199
  N   6.80001579651700      1.56726214841153      0.08902881029568
  C   5.83141134499987      0.62395366541729     -0.26908435667817
  S   5.56242302730421     -0.87608092343055      0.54219984747069
  C   3.75565509255078     -1.12033310036758      0.27898197100907
  N   3.26149984321228     -2.27093304434976      0.40973557555886
  C   4.78477091127489      1.17118958717132     -0.99692197447496
  C   6.29984428345881      4.12867010146900      0.10925320178324
  N   7.11123529831871      4.91942574011884      0.64775082060103
  C   4.78805197249112      4.50409848769481      0.01881201228327
  N   4.21796441579542      5.51070597306618      0.49917566421060
  H   2.19180485087093      2.82599136565925      0.07750000233023
  H   3.95817697634705     -2.99441021932104      0.57845121815695
  H   8.04680250497460      4.52048031642436      0.71976860346035
  H   4.92131727571624      6.14045225609158      0.90018634991022
