22
Coordinates from ORCA-job 11187optt
  Br  1.16949540072412     -0.15202137804242      0.92618003603974
  C   2.97669179833699      0.07909767033865      0.50679364410173
  C   3.55203099741247      1.28391849941842      0.37650998661208
  N   3.10958844361522      2.60708176842903      0.55279896753101
  C   4.21996095905636      3.39927442303111      0.22839688677886
  C   4.68464543498628      4.66824358876513      0.13207894539830
  O   4.31456654242054      5.97682132352831      0.23247010910908
  C   5.48453996575384      6.63697117566404     -0.04585947462321
  N   6.52105338601583      5.93520366326730     -0.30257067991541
  C   6.06438519563128      4.61939974854604     -0.20170176414865
  C   6.47540955030285      3.31704425725994     -0.29763518882016
  N   5.32410306899751      2.58854883957133     -0.03782924812336
  C   4.95733231003846      1.26212684385070      0.04893001956663
  N   5.71336384229860      0.23958903233422     -0.11639100362657
  C   5.11685885167149     -1.01008266894205      0.01535125900419
  N   5.69134336473222     -2.13381425747519     -0.10680460311058
  N   3.73478726053183     -1.03027654620895      0.31130837560042
  H   2.21626105816754      2.86429270869320      0.15613902464349
  H   5.41716764237292      7.71336451497662     -0.02135993604760
  H   7.41228756241660      2.83320696231287     -0.49918938741682
  H   6.67319503016361     -1.99159985882587     -0.32105522792008
  H   3.32593233435339     -1.94939031049242      0.38843925936689
