20
Coordinates from ORCA-job 11192optt
  Br  1.14594557430258     -0.14452589260341     -0.08728603389205
  C   2.99403049720353     -0.22478928172717     -0.08023579937396
  C   3.72253436823332     -1.38290628218715     -0.07738675344558
  N   3.28503461364920     -2.67167957334799     -0.07772294839288
  C   4.40966008798622     -3.37097997795973     -0.07578208358805
  C   5.59947231325786     -2.58543713008919     -0.07423706481807
  C   5.16512384512902     -1.27084274578933     -0.07482875293996
  C   5.76313976508811      0.00715360058795     -0.07377563554303
  C   4.93871902288441      1.07404660426829     -0.07550016072159
  O   3.59107325520924      0.95333565467566     -0.07886625963294
  C   6.90623764295677     -3.19209523551726     -0.07344616994894
  O   7.98700954887336     -2.64529702329107     -0.07275743166487
  N   6.81747361028653     -4.59110173998323     -0.07394445386293
  N   5.73361620122754     -5.35878093367216     -0.07437639491682
  C   4.56264411534782     -4.80747845398308     -0.07520805854459
  C   3.42634034653371     -5.68742546175627     -0.07529057953088
  N   2.51067778258021     -6.37632205907020     -0.07544318757476
  H   6.83510185236502      0.14110371937252     -0.07159389028023
  H   5.23370434673672      2.11070151205609     -0.07472992172162
  H   7.69246121014880     -5.09667929998326     -0.07358841960624
