21
Coordinates from ORCA-job 11197optt
  Br  1.11125907704768     -0.02827701741987     -0.11243963313847
  C   2.97361116671907     -0.03585527303587     -0.08836555936956
  C   3.68287532793956     -1.21281057045807     -0.07285947969337
  N   3.27847868762965     -2.50618439543116     -0.06767797573921
  C   4.41608192839531     -3.19805745933128     -0.05599991651883
  C   5.60456367187148     -2.40540301978496     -0.05333076700480
  C   5.12422545501520     -1.11308320852085     -0.06316917127210
  O   5.76417001364235      0.05061638734028     -0.06554962074790
  C   5.04720454929000      1.17189041902302     -0.07653854572165
  C   3.68955964590968      1.18262608755379     -0.08822793394123
  C   6.91267814649837     -3.01394472908596     -0.04454158455636
  O   7.99637169371179     -2.47705279399907     -0.04254041332303
  N   6.81486267019857     -4.41406739931744     -0.03858525355147
  N   5.73222727878499     -5.17820771542514     -0.03882282958832
  C   4.55838841439620     -4.63182160850498     -0.04686201742668
  C   3.36131461712937     -5.52407256172802     -0.04590566736845
  O   3.41698219985953     -6.72113118463358     -0.04222512866180
  H   5.66778091868596      2.05469672477470     -0.07574602795052
  H   3.17010612437515      2.12869803942859     -0.09777473215995
  H   7.69184830427433     -4.91692616972839     -0.03236504821542
  H   2.40241010862573     -4.98063255171569     -0.04847269405086
