22
Coordinates from ORCA-job 11193optt
  Br  0.99308210798265     -0.06426263663073     -0.03915692422064
  C   2.86609951432068     -0.05887639284784     -0.03898350455845
  C   3.59928570706118     -1.19391510056920     -0.03896333812823
  N   3.21629035877942     -2.51710007405168     -0.03900776360182
  C   4.33397990722619     -3.28284797307251     -0.03900194378021
  C   5.48063058449186     -2.51353257237289     -0.03895635340647
  C   5.04020737267995     -1.12441881949305     -0.03889923359255
  C   5.66934100374104      0.09015184574421     -0.03878807247960
  C   4.90845450098655      1.31340195793100     -0.03878683275947
  O   5.34916431445270      2.44816206807180     -0.03862177691701
  N   3.50800008014598      1.13114842194058     -0.03890636740321
  C   6.78102330401825     -3.12460493895860     -0.03901216430904
  Br  8.33080402436823     -2.03663688020140     -0.03914440915119
  C   6.96407095444530     -4.45124402879205     -0.03902495723145
  S   5.70546290246335     -5.64406375916590     -0.03897082409578
  C   4.20323772371738     -4.73167326638270     -0.03900535800417
  N   3.03988985313422     -5.24443638335302     -0.03902768571807
  H   2.28508327825007     -2.90428140083645     -0.03901005903082
  H   6.74032604943654      0.20119928685546     -0.03871955459990
  H   2.97572321616624      1.99104473647247     -0.03889860351491
  H   7.95143390525994     -4.89027449754158     -0.03908557178366
  H   3.04240933687223     -6.26193959274590     -0.03902870171337
