21
Coordinates from ORCA-job 11209optt
  Br  1.15126967770092      0.26533035425330     -0.10573208694648
  C   3.02230566690416      0.15980857683340     -0.05134086170485
  C   3.73590639971109     -1.06785513297234     -0.04320002875997
  N   3.21245779855383     -2.23801213507365     -0.05272033278735
  C   4.28683293505718     -3.17746004683743     -0.04967171597531
  C   4.12324245626927     -4.57552184991149     -0.05628242472400
  C   5.33531118425411     -5.19415034750429     -0.05767372701693
  N   6.03964027547166     -6.47616942222279     -0.06566034684325
  C   5.66603756514670     -7.69765963737105     -0.07433058611391
  N   7.27241848725234     -5.88918745053992     -0.06178797113026
  C   6.61328372749979     -4.63078555016440     -0.05354088610374
  C   6.77619772389647     -3.26257890571506     -0.04398941767683
  C   5.54627900429703     -2.58587959837406     -0.04217874796334
  C   5.28051391669398     -1.13044151878406     -0.03257795864802
  O   6.03686170767084     -0.20122222312938     -0.02022316179726
  N   4.15533702841312      2.30396531425238      0.00242467497858
  N   3.65949740774769      1.30425275424729     -0.02269740974040
  H   3.15277233487175     -5.05055360443147     -0.06052324222716
  H   6.42683274043498     -8.46414823866338     -0.08090036291688
  H   4.60915069495560     -7.91094357769574     -0.07525326305527
  H   7.71985126719747     -2.73578776019583     -0.04014014284737
