27
Coordinates from ORCA-job 11205optt
  Br  0.82432667523012     -0.03124691494596     -0.09089937456365
  C   2.70452699394525      0.02699042194258     -0.05822294454929
  C   3.42231039942962     -1.07104771323414     -0.39448914473699
  N   2.79626139341373     -2.27880164273732     -0.71054785564963
  C   2.11614415574584     -3.07073466307164      0.27677635515262
  C   1.98434565674423     -2.65127771466131      1.68872839042256
  C   2.89009753702970     -3.80118317655631      1.36173454830159
  S   4.62738356217817     -3.53121190723088      1.58784508672743
  O   4.84294739795859     -2.20335777965822      2.09926284295061
  O   5.09762228650201     -4.68028487094104      2.31147758232544
  C   5.39058450326495     -3.62300563032215     -0.04148269322793
  C   5.63220198687526     -2.32479475821623     -0.84477610233479
  C   4.89028668310854     -1.05661609982824     -0.46316026192045
  N   5.61870016645709     -0.02912748855456     -0.25990793416325
  S   5.03866628105239      1.43772495790254      0.18790777185629
  C   3.28089834295041      1.31532555443116      0.33360009045851
  N   2.56618030754900      2.29054094078524      0.71491366718390
  H   3.32829673475370     -2.84732553637392     -1.35010226938460
  H   1.28965005194206     -3.63424810471178     -0.13602334390563
  H   1.05680842659197     -2.86633196311957      2.19723723586058
  H   2.49064436837550     -1.74645718156168      2.00012402874556
  H   2.62647605994718     -4.81567218085792      1.62363092561177
  H   4.80869523645516     -4.36599713245722     -0.58855600094635
  H   6.34683009531429     -4.09025072449932      0.19492851711380
  H   5.43095084521586     -2.54433575596033     -1.89849827848358
  H   6.68478081050428     -2.06207957694988     -0.78351379689597
  H   3.11738304146502      3.11780664138812      0.93901295805145
