26
Coordinates from ORCA-job 11203optt
  Br  1.13996395223862      0.02307682255690     -0.40792401324516
  C   3.00809015327609      0.09750764144488     -0.17117115881629
  C   3.70093469243442     -1.06111208498786     -0.02574112720416
  N   3.09844980196037     -2.29523363976481      0.05753280829947
  C   3.75751058946162     -3.50855496324049     -0.33107645709597
  C   2.90690092138431     -4.70968850777397     -0.56655301848898
  C   3.59697512086767     -4.04259542075191     -1.72477517486252
  C   5.08502327417896     -3.64792954793885      0.35700536185269
  S   6.10949409579060     -2.31314749731742     -0.19115403516496
  O   7.26611565981897     -2.16737495385352      0.63162545035800
  O   6.25123324267532     -2.38768285272918     -1.60911572404019
  N   5.08555174847372     -1.01445663098838      0.19916186680784
  C   5.71855457970163      0.22453841773580      0.29795350878919
  C   5.05385053658102      1.37331394953229      0.18512414188419
  C   3.61827883332149      1.41839715183648     -0.09250835839265
  N   2.92355680224092      2.47866612007153     -0.25215077138706
  H   2.10574721213209     -2.25692526048336     -0.12630796383770
  H   1.83764432004536     -4.57649289670717     -0.46775708161794
  H   3.27448142622913     -5.66588735459477     -0.22176546936098
  H   2.99291433650107     -3.44931103025409     -2.39636883236872
  H   4.44365898817653     -4.53351963856054     -2.18263979289446
  H   5.61269233983211     -4.55482056955449      0.06247374605462
  H   5.00802041390635     -3.57824368843381      1.44186344093261
  H   6.78051000908936      0.16487669985252      0.48699920566454
  H   5.58854249515424      2.30637405061023      0.29913099675669
  H   3.50930445452799      3.30622568429402     -0.16086154862209
