24
Coordinates from ORCA-job 11202optt
  Br  1.10817809370031     -0.10475557959429     -0.79331335235264
  C   2.90857652025105     -0.15715166718420     -0.28578638893547
  C   3.54158700823379      0.94315648249206      0.14798684323445
  N   3.04557984030926      2.21136451616675      0.35044881078072
  C   4.15079376959036      3.13102830511224      0.48120037953905
  C   4.35273610981032      4.25958214227938     -0.46816371868235
  C   3.94335670418769      4.53143498102948      0.97168015026394
  C   4.90641959752192      5.08542640598752      1.88361569505240
  C   5.73161435205737      5.51688447132049      2.63821846921156
  C   5.28737829549665      2.26970517100426      0.99835938880555
  N   4.87819370456242      0.94989387336345      0.51651358912876
  C   5.60230484853908     -0.19363608213551      0.59313431098362
  N   5.21825103373414     -1.35564188187932      0.24347833892854
  S   3.76588796109986     -1.66997006541496     -0.46285145238374
  O   4.01067693792903     -1.91139041548013     -1.84929213583871
  O   3.10154205698950     -2.67166410900664      0.30440824837537
  H   2.23122497305966      2.47549072248252     -0.18547487797182
  H   3.59665336435817      4.41981011208356     -1.22489005957675
  H   5.36275915277220      4.52247387624482     -0.75009593180789
  H   2.91469540557518      4.82922492596571      1.13199031500568
  H   6.45586964613851      5.91661557840048      3.30762836080646
  H   5.32980821887493      2.29264597471327      2.09001592535188
  H   6.25381723476706      2.55868076851886      0.59036424079419
  H   6.60309517044147     -0.06920850646983      1.00182485128716
