24
Coordinates from ORCA-job 11200optt
  Br  0.95911641835221      0.03340563785524      0.19255726834595
  C   2.84127464755748      0.02855069366733      0.07689470335361
  C   3.53481738289943      1.20368229804210     -0.10133621242220
  N   3.03357373451879      2.47533669563952     -0.30840726493572
  C   4.11519927646177      3.42779450395697     -0.28344324280672
  C   4.97383258795331      3.50242388413782      0.93968970830368
  C   5.39417231888392      2.62695358444351     -0.21962442647505
  C   4.95198739408182      1.21043614264210     -0.13719942678112
  C   5.67021912230028      0.04656232291805     -0.07653641205830
  C   4.97007030765001     -1.16287921257647      0.06386633855313
  C   3.56965384273929     -1.16087164740039      0.15295336593974
  S   2.93975214273880     -2.75822041083819      0.34785405410502
  C   4.52243683015383     -3.43228654274228      0.31455648494784
  C   5.50013984931292     -2.50156743809493      0.16251138822379
  C   6.89231205665042     -2.79320597118217      0.10846272206415
  C   8.07164287515060     -3.00806075948407      0.06000892953483
  H   2.14458738296836      2.71855147374674      0.10284803134555
  H   4.00678611321066      4.28902008519507     -0.92628590035397
  H   4.62658397416208      3.01131001319504      1.83910013681128
  H   5.53695874749305      4.41240840422139      1.08747484628742
  H   6.26821078310717      2.89590322250088     -0.79399111908279
  H   6.75282770570748      0.04148813672313     -0.11247139014200
  H   4.65722848923001     -4.49753526289391      0.40926622497994
  H   9.11461601671630     -3.21219985367248      0.01825119226195
