22
Coordinates from ORCA-job 11204optt
  Br  1.73483308157168     -0.98231487753501      2.01100821649804
  C   3.23860983829750     -1.11594101576521      0.91475216322602
  C   3.22087320416449     -0.86150170333861     -0.40622877214519
  N   2.07330786776282     -0.55808049121326     -1.15439134835137
  C   2.09736447656386     -1.22884552262185     -2.43274877570238
  C   1.24396796487529     -0.96044293574249     -3.64612830874937
  C   2.64404766546883     -0.46392964452387     -3.58234127158165
  N   3.82980081824326     -1.00304116992321     -4.20595598707758
  C   4.81820013717542     -0.89159155798237     -3.44884209490745
  O   4.68563655871139     -0.22819252376890     -2.21323540185885
  C   4.54042193022026     -0.93831840998587     -1.07548342001660
  N   5.55912476489533     -1.56138823773773     -0.62558839181681
  S   5.37377997988383     -2.44477111703185      0.73327102853533
  O   4.67433606150381     -3.64045556881430      0.43139308756922
  O   6.57417869526192     -2.44675000691776      1.47195040870259
  O   4.36775998009426     -1.47094566001919      1.57680132536084
  H   1.22936545019983     -0.70935833024353     -0.61555310628501
  H   2.43009314956138     -2.26418737672057     -2.39170898532016
  H   0.47803727919555     -0.19900983584934     -3.60749141924005
  H   0.99822895146811     -1.83810591963900     -4.22724381460172
  H   2.71282607451922      0.59759524546176     -3.38294267257046
  H   5.82120607036193     -1.23542334008783     -3.66929245966737
