23
Coordinates from ORCA-job 11207optt
  Br  8.79229050399027      1.08872629738354      0.04074575500232
  C   7.07211336778461      0.39054955699192     -0.01667841946757
  C   6.75321692922955     -0.91158660513755     -0.00172907389404
  N   7.47999267958100     -2.06030207191900      0.05902853899067
  C   6.61700386514776     -3.16739335808276      0.02664713551164
  C   6.90168524577182     -4.48489738478783      0.05846378224524
  C   5.78093031504723     -5.38069754144020     -0.00048854186174
  C   5.63814880154155     -6.73277067716349     -0.00079536207343
  N   4.28581213147684     -7.12051948225168     -0.08190210678444
  C   3.57318408127863     -6.04284871293541     -0.13075812291033
  C   4.41512997011099     -4.85234979316165     -0.08685869621320
  C   4.14206360142258     -3.53013765003688     -0.11329618278308
  C   5.25971532187598     -2.63838666302076     -0.05698028094441
  C   5.34873452358541     -1.27491261495676     -0.07128074471399
  N   4.38437939393287     -0.29690360113089     -0.14040999721487
  C   4.79928874571505      0.90574915858391     -0.14051995260848
  O   6.07695802416738      1.32633038230888     -0.08559508699363
  H   8.48254158524932     -2.10463160584785      0.11279338765336
  H   7.91647156181603     -4.85527797335634      0.12175273193442
  H   6.40526971099921     -7.48943654536509      0.05443030876172
  H   2.49348619689531     -6.06248745365293     -0.19750056930910
  H   3.13574453958007     -3.13487311206718     -0.17771912954304
  H   4.12283890380049      1.74905745104605     -0.18634937278402
