21
Coordinates from ORCA-job 11208optt
  Br  0.83337324434846     -0.41463896203839     -0.49420786336263
  C   2.70976638344950     -0.05696436673342     -0.22661857247343
  C   3.64159669784721     -0.78650870065330     -1.13159067236247
  N   3.17281839870224     -1.51066942220024     -2.08848229356233
  C   4.03357206348362     -2.13261490201678     -2.93557684966828
  C   3.73183822968972     -2.93357861430924     -4.00446608507231
  C   4.98397563888460     -3.33259580360021     -4.59460718027105
  C   5.62173738576537     -4.05998027057043     -5.62609829208491
  N   6.93592913694649     -3.94546393218002     -5.53616669322517
  N   7.18011712788113     -3.16337128151402     -4.47126731827750
  C   6.03629810379589     -2.76880804372496     -3.87379417031717
  C   5.51253359799516     -1.99030897815007     -2.79386555572152
  C   6.01218275426863     -1.25145400682665     -1.78506695942341
  C   5.06816718768153     -0.62368480280535     -0.91233390006409
  N   5.55695119217748      0.07825957674852      0.10357368789972
  N   6.03739937192978      0.64274816636383      0.93019293709342
  O   3.07109042039535      0.70473194932540      0.60902757855721
  H   2.73677058761544     -3.19727586419138     -4.32407030115202
  H   5.19758822990365     -4.65210336319483     -6.42021271646669
  H   8.13311394027437     -2.95029765223379     -4.23672051166184
  H   7.07118030696432     -1.11242072549466     -1.60764826838349
