24
Coordinates from ORCA-job 11218optt
  Br  1.09901273405508      0.03909281302946     -0.02351624197013
  C   2.97106463194842      0.09501389713658     -0.04872516421548
  C   3.63063987995182      1.28452457874181     -0.05796865479226
  N   2.98659392442296      2.49155486463042     -0.05467954375406
  C   3.70734180836731      3.67619477461401     -0.06125757570904
  C   5.06555799887518      3.68771756081730     -0.07039380225705
  C   5.95206784049634      2.50557272809974     -0.07548445423375
  C   5.09451515515194      1.25077581517497     -0.07145461043751
  N   5.73293359838578      0.13691595594220     -0.07854768838369
  N   5.05348331218166     -1.00319395075922     -0.07415672085909
  C   3.67118974851083     -1.17410502909145     -0.05942524788856
  N   3.07693533570968     -2.30168853267819     -0.05579731014968
  O   5.52237124165632      4.94998100433013     -0.07389263154999
  C   4.43287256065084      5.76430256278799     -0.06723442753288
  C   4.68838629210258      7.19998874108315     -0.06808859483074
  O   3.81735085568439      8.03065984211535     -0.06227226497749
  C   3.28326773076132      5.03013995045831     -0.05949862939052
  H   1.97917203213869      2.49693638274776     -0.04673636376657
  H   6.60765020710124      2.49956548515661      0.79930250717209
  H   6.59873694126082      2.50005898732683     -0.95683497318422
  H   5.63318163841574     -1.82768522031495     -0.08194369720975
  H   3.72910311384075     -3.08208266937930     -0.06526565413859
  H   5.75867569391121      7.47276264326256     -0.07378649214305
  H   2.28389572441906      5.43199681476788     -0.05334176379797
