31
Coordinates from ORCA-job 11212optt
  Br  1.22869814248840      0.18663225192829     -0.12300264352598
  C   3.09498214354902      0.00884159840070      0.00799505761915
  C   3.69694736739444     -1.19770261429310      0.12414377710006
  N   2.99141277603904     -2.39879079793809      0.27543753983217
  C   3.66276856818138     -3.63375134738785     -0.10408768356373
  C   5.01359120559035     -3.67849663466811      0.59694303780384
  C   5.88609251396281     -2.49765632347850      0.18454950681223
  C   5.14241827656699     -1.18155602728813      0.19551694194615
  C   5.81950310336753     -0.01220519328991      0.22355482209021
  C   5.16857726261574      1.28155842237148      0.14975781472437
  N   5.68579876270763      2.45361248090698      0.18124082011747
  N   3.79277983607761      1.18343497399317      0.00872091090700
  C   3.79669274056849     -3.75302493171507     -1.63068578984629
  O   2.51515587592552     -3.83565385090340     -2.22506957820277
  C   1.78737123248147     -4.91911493267890     -1.72595111114562
  O   1.56139547190450     -4.80851924812402     -0.34998755134402
  C   2.78562860633725     -4.79337850543260      0.36036105841171
  H   2.04589091878174     -2.35958392387762     -0.08561679816611
  H   5.52300976918108     -4.61736767275866      0.37069479556149
  H   4.82978260863997     -3.65123406120794      1.67398850710435
  H   6.26429836790298     -2.66056665101606     -0.82923195984503
  H   6.76272913951694     -2.42424633138522      0.82855114867468
  H   6.90095246308517     -0.01350671469626      0.28598925659665
  H   6.69395586141443      2.39675796788113      0.27698567421492
  H   3.29680333866670      2.05868182829769     -0.07441008266078
  H   4.39004820179531     -4.64184499903728     -1.89038345370986
  H   4.27709548707976     -2.87125936347391     -2.05495198752707
  H   2.33098169279528     -5.85486516255126     -1.93495445679371
  H   0.81935567487320     -4.91542656498750     -2.21889052770200
  H   3.31809056718678     -5.74144431271994      0.20199056358765
  H   2.54519202332242     -4.68432335887007      1.41680239092886
