21
Coordinates from ORCA-job 11211optt
  Br  1.19110686418488      0.37160806376140     -0.05752773175247
  C   3.02276125495196      0.09568025685138     -0.06757593652460
  C   3.60874141111376     -1.14818630764963     -0.06870674812946
  N   3.01906032967651     -2.35718187944857     -0.06390864803351
  C   4.05158420948957     -3.21905775965020     -0.06636062998845
  C   3.99351175780185     -4.62871070982619     -0.06288381531533
  C   5.22448994257251     -5.21845079998977     -0.06559449251246
  O   5.51318208943045     -6.53376066508325     -0.06273945076795
  N   6.90223078762383     -6.68970725865984     -0.06645886800448
  C   7.44035459567869     -5.52276553666543     -0.07157479025998
  C   6.44250871643622     -4.48104944505373     -0.07160538504369
  N   6.54435259154901     -3.17584217825459     -0.07560219047036
  C   5.34853092144086     -2.56190137351156     -0.07301752418536
  C   5.05432412230148     -1.18845631465170     -0.07488708671251
  C   5.78807943311063      0.00601287927948     -0.08070825446643
  C   5.09691324401631      1.17005176355084     -0.07995843391393
  O   3.74629424306349      1.19599202949488     -0.07317752209363
  H   3.06074094841833     -5.17450263902941     -0.05824710746950
  H   8.51495775396572     -5.42892568869320     -0.07509685512296
  H   6.86876380308238      0.02024891947690     -0.08591584543422
  H   5.50751098009153      2.16590464375220     -0.08445268379871
