28
Coordinates from ORCA-job 11223optt
  Br  1.31221947450827     -0.73059924502605      0.81221973551146
  C   3.06198661829718     -0.45725449682706      0.21406771561337
  C   3.60618386839308      0.77625765874709      0.19007599874894
  N   3.08371536663008      2.00127787487269      0.59779925302045
  C   4.00877000990900      2.85642521248666      0.33263347737969
  C   5.23365159141349      2.32551703101373     -0.36817307800505
  C   6.33518484366543      3.01515299702204      0.44450991577453
  C   5.68498765546881      4.39578144239718      0.70735712861575
  C   5.91647553110397      5.06071436273575      2.06226606432332
  C   4.58556784656612      5.77331756162404      2.33241433010070
  C   3.53083804118289      4.78444638630820      1.82508188837931
  N   4.22546235827641      4.11314990622747      0.72829491119629
  N   4.92479665012988      0.91672343473118     -0.26298932797244
  C   5.60101697177852     -0.16430354268962     -0.72374765086914
  N   5.15156605208274     -1.35935432246646     -0.71136826825538
  C   3.84944811647339     -1.62290288868176     -0.22326142768235
  O   3.42427367630048     -2.75009007986522     -0.18398804680596
  H   5.26441557481255      2.64253466795698     -1.41563965453553
  H   7.29177656436111      3.08647742186379     -0.06866200656433
  H   6.47248038672753      2.48670349502270      1.39037941871865
  H   5.91548898900256      5.08975902686319     -0.10615295338381
  H   6.77033380054950      5.73572450032793      2.05989842058535
  H   6.08715101306270      4.29251893450146      2.82038101705660
  H   4.53437344357129      6.69790010349312      1.75482522855432
  H   4.44293776759828      6.02233650459428      3.38175859856396
  H   2.62206461241831      5.26983386531336      1.47424726866993
  H   3.25658403714770      4.04391686690316      2.58133942955364
  H   6.59724913856863      0.03903532055013     -1.11056738629228
