24
Coordinates from ORCA-job 11221optt
  Br  1.10959529017288     -0.75112700079217     -0.29795967297728
  C   2.98633453844508     -0.57311030147598     -0.43541809897485
  C   3.79676545703211     -1.48510466802693      0.18944854254233
  N   3.27990758574070     -2.50041316737404      0.93426094909162
  C   4.11757119156059     -3.53582383789701      1.53655674645571
  C   5.37150616331459     -2.82056531026149      2.08343901336796
  C   6.09351554789049     -2.45477976784639      0.76574655880270
  C   5.88321848589644     -3.73870645217956      0.00118571052806
  C   4.77770362863803     -4.37163455315343      0.47196244673360
  N   4.53365792186795     -5.38914878936272     -0.40648622276485
  C   5.53517695540965     -5.32744749439008     -1.33871152551177
  N   6.35670312832523     -4.32608284319120     -1.13456645962613
  C   5.27097590205664     -1.37096390762960      0.09243676970868
  N   5.88975948692917     -0.44003040012079     -0.52263619498879
  S   5.17774478089150      0.79043982364627     -1.33757209847385
  C   3.42003526663240      0.57396786871984     -1.20016414294265
  O   2.70362115611439      1.38650232661934     -1.73472360479820
  H   2.28001028032036     -2.62487155523390      0.90187588296609
  H   3.53410492294883     -4.05381097250020      2.29347105594493
  H   5.97927115593747     -3.50522503826563      2.67058465180184
  H   5.10182744925313     -1.95130768186895      2.68276210224395
  H   7.12021120294096     -2.11799629770062      0.87515556031354
  H   3.81005452633455     -6.08635553986901     -0.36894811898425
  H   5.62072797534680     -6.05740443984571     -2.12769985045840
