20
Coordinates from ORCA-job 11228optt
  Br  1.13376188381788      0.03935699586896     -0.08476109829756
  C   2.98565383979622      0.16861500584006     -0.08517230171290
  C   3.65761116107999      1.34424069979100     -0.08513311080438
  N   3.01165655573147      2.55307316040547     -0.08492108858441
  C   3.76635257954190      3.59761764595478     -0.08474765811608
  C   3.34727781103316      4.98220565391183     -0.08439929708999
  C   4.48058619265432      5.73122306936791     -0.08413760926878
  C   5.68072309248144      4.86715526505524     -0.08438811429029
  C   5.26386344489971      3.58751786266991     -0.08469730878809
  C   5.90285895037023      2.31718824211844     -0.08501051623948
  Br  7.77280123004881      2.18277413145892     -0.08511692630152
  C   5.10958584473013      1.22459771440082     -0.08526213726038
  O   5.64953938744865     -0.01997193623761     -0.08561311570561
  N   4.86393667245870     -1.16260852604796     -0.08572575462757
  N   3.64158323049924     -1.05833415850922     -0.08549105899608
  C   4.55177431382561      7.14786242231635     -0.08380966122835
  C   4.63826991625651      8.34453919158078     -0.08273025971134
  H   2.32691293187706      5.32574595417195     -0.08436781663578
  H   6.69542093579753      5.23173200603696     -0.08429203563467
  H   4.70783002565141      9.40646959984536     -0.08222313070674
