25
Coordinates from ORCA-job 11224optt
  Br  0.84849957362519     -0.19040221731950     -0.06365447560513
  C   2.71735674239962     -0.21641824214152     -0.33410110176984
  C   3.43425943234670      0.91374876767770     -0.22720764774590
  N   2.87948191782542      2.13684046000473      0.12653596595094
  C   3.60362857484894      3.37577361438457     -0.16175486008866
  C   4.52112185674666      3.10905311414803     -1.35559929475733
  C   5.52699592719662      2.18537755478979     -0.67618445423716
  C   5.79307330301126      2.84303750737906      0.67277836440325
  N   5.82330928081531      4.28971684298847      0.76290355756814
  C   4.56539201111276      3.61189351841528      0.99850462157557
  N   4.83451714392275      0.90304055327509     -0.41558054562046
  C   5.64712669551400     -0.18178251105515     -0.21561665718371
  O   6.85157024421732     -0.07245592250067     -0.17039753548182
  C   5.03335224748618     -1.57044449309964     -0.11487036819612
  N   5.73875888788627     -2.57374329556830      0.16522925582717
  S   3.37067240311718     -1.80835819822734     -0.61514088855303
  H   1.87976484675115      2.16730532113225      0.00409426682323
  H   2.87735771029407      4.17208194652534     -0.31395462606823
  H   4.99777297205249      4.00488569038916     -1.74570125871229
  H   3.99551469495729      2.62153845834275     -2.17502929500775
  H   6.41754846135147      1.95797614305823     -1.25512739436834
  H   6.37523900221796      2.29472766907664      1.40051455711663
  H   5.88246125948518      4.76168290408565     -0.13082702780747
  H   4.15325055668142      3.67600116419328      1.99630075515670
  H   6.70697425413676     -2.27207634995391      0.30688608678163
