23
Coordinates from ORCA-job 11234optt
  Br  1.08673096917958     -0.34461345554051      0.07879293342808
  C   2.93897405878002     -0.05416839988007      0.05008265276193
  C   3.43756764345283      1.20851434880431      0.01656420222735
  N   2.66223352411460      2.33322130849253     -0.00042841680633
  C   3.23821277388480      3.56603026605161     -0.03515674639580
  C   2.71919516628886      4.81478276593234     -0.06157525985933
  C   3.86784643424633      5.75142685324144     -0.09426241723349
  C   5.03651587069040      5.08558401657358     -0.08709780992784
  C   4.71514527533065      3.66107699374856     -0.05034201585846
  N   5.49374973106127      2.64747973165726     -0.03525603105140
  C   4.88147219327899      1.40186625657953     -0.00265305568132
  C   5.65423433934368      0.29782875614277      0.01407797572479
  O   5.16858189711013     -0.93786167991934      0.04574198072483
  C   3.79786938147379     -1.21775670778051      0.06132649292820
  N   3.40062374912841     -2.41169269859045      0.08329386908984
  C   1.34450504666996      5.14278549718890     -0.05982027958236
  C   0.16752579181973      5.38538204035216     -0.05806940419506
  H   1.65430523616741      2.23533947342252      0.01009301207970
  H   3.73918469087490      6.82322090924347     -0.12036849759751
  H   6.03559167655370      5.48678090858415     -0.10604424335022
  H   6.73413669253149      0.34348776649304      0.00282612268213
  H   4.17912665656134     -3.06539511843767      0.08571972184105
  H   -0.87232879854289      5.60968016764035     -0.05644478594876
