21
Coordinates from ORCA-job 11233optt
  Br  1.27065545054697     -0.42261343884455     -0.59268857122509
  C   3.14137208362864     -0.30914691824104     -0.37805026386468
  C   3.85434591085260     -1.43361979736222     -0.11613094726603
  N   5.22820021388399     -1.35781317178208      0.05018515188624
  C   5.82436585896546     -0.10899764551600      0.08818191132238
  C   7.08434279120126      0.34651354508155      0.26513085617434
  C   7.02915104999049      1.78857771311592      0.05172632661856
  C   5.77570321592576      2.21117688877358     -0.25744745262715
  C   4.94106540611265      1.04353722645415     -0.24915716678020
  N   3.67827106867201      0.93498471307593     -0.48772900297369
  C   6.05488428205790     -2.49490962117048      0.06482076704129
  O   7.16427021612777     -2.46986840410704      0.49800604146662
  S   5.63275025859588     -3.99949694113479     -0.84595640267946
  N   4.00732570997220     -4.17168181315126     -1.44842976015216
  N   3.02517632717610     -3.61528815562729     -0.98733832598902
  C   3.20668215370964     -2.74641864447589      0.14754210764782
  N   2.83315821265886     -3.06824047669233      1.29733806621976
  H   7.96177130170030     -0.21829798306019      0.52205608509902
  H   7.89660059865401      2.42681108296203      0.14103493907568
  H   5.43326838978141      3.21256774995875     -0.45550536612993
  H   2.37663949978605     -3.98377590825673      1.30241100713568
