26
Coordinates from ORCA-job 11230optt
  Br  5.19841867061166      0.93377802122396     -3.22355758971054
  C   4.34075487518440      0.46487733570144     -1.62005219079317
  C   3.22642368226021      1.11823648252238     -1.19224462762501
  N   2.53767223207743      2.11766661151901     -1.78785188032199
  C   1.25205251615624      2.41485568825186     -1.30016646367258
  C   0.45741621145054      1.41935217290567     -0.84924747379393
  C   -0.34465838566565      1.97650681520070      0.20089424980818
  C   -0.17767547801269      3.43671368499055      0.14324167723548
  C   0.82018164722821      3.69578923242415     -0.72657420113016
  C   -0.74373231188154      1.27981974919169      1.28770049905504
  C   -0.52256881034321     -0.11387688681914      1.59708244298699
  C   0.48611075449511     -1.02706436722965      1.46884953327867
  C   1.86387649740538     -1.20761319061968      1.05218862634458
  C   2.85581125313565     -0.54589719901008      0.40171599515852
  O   2.73231914104818      0.76629924308543      0.01679911683773
  N   4.04842199936463     -1.15799971744854      0.11778491582577
  C   4.76931435370872     -0.63870211328188     -0.82412257506836
  H   2.97643943182844      2.60060554710036     -2.55718175200609
  H   0.57859378094817      0.36284327264870     -1.02915012950929
  H   -0.70482495937188      4.14147173490267      0.76770543890336
  H   1.26530739750303      4.65499577690263     -0.94488785890657
  H   -1.29760461933002      1.82406700598099      2.05012156183219
  H   -1.34945024079591     -0.52036584196231      2.17389122370551
  H   0.16735710640038     -1.96891573252226      1.90581681284722
  H   2.23557312092916     -2.18488615266900      1.33404120535633
  H   5.71647013366534     -1.11555717298966     -1.05679655663786
