26
Coordinates from ORCA-job 11238optt
  Br  1.48396222757312     -0.23310728688349      0.96471295958710
  C   3.25969813826557     -0.20913412536332      0.35822848368804
  C   3.83428957422534      0.98074286888134      0.04519581983422
  N   3.30918137645173      2.24063725924054      0.10538273012581
  C   4.19812919722457      3.22428803820866     -0.48938627281442
  C   5.49942927641549      2.42612950573662     -0.75458632984757
  C   6.58031127842090      3.07775954484502      0.16764851801771
  C   5.79100467660509      3.73704175049268      1.30937001429655
  C   4.55371561448350      4.24419777369229      0.60254931504603
  O   3.93629168640550      5.24233627865864      0.82450739963229
  C   7.62428785420318      2.17172110207583      0.62067904548132
  C   8.47919233933847      1.43735053563991      1.02398259193272
  N   5.12261466493238      1.06475829611306     -0.40506871997937
  C   5.85416268455424     -0.07383127555095     -0.62398655385802
  C   5.34376059838611     -1.28371470342786     -0.34106154667307
  C   3.99032046646757     -1.45987976287362      0.20323369138423
  O   3.52949280182570     -2.55423587695543      0.47813219570556
  H   2.31116920352189      2.36990899548993      0.14452482550112
  H   3.77125081081853      3.70711643803989     -1.36848816479299
  H   5.82479498104294      2.46044048270596     -1.79361612824754
  H   7.04805848957177      3.86945765030008     -0.42582178110362
  H   6.32676374078883      4.52775127244818      1.82676417085792
  H   5.48600770214764      2.97752548932902      2.03526614855197
  H   9.23303811223049      0.77804906390118      1.38458680416828
  H   6.84617075889406      0.08014966091050     -1.02344572918738
  H   5.92490174520528     -2.17745897565471     -0.51330348730689
