27
Coordinates from ORCA-job 11249optt
  Br  3.59638116163242      1.73020833899315      4.17613558935429
  C   3.91112914259254      1.09704202259362      2.42701519819976
  C   3.84322996685309      1.89486667880801      1.35598715808359
  N   3.19327725189512      3.18888949570550      1.38801093655502
  C   1.95593124981921      2.87635320898447      0.74038567813241
  C   1.69875269844105      2.61898501734990     -0.58890661646531
  C   0.68604182550601      1.64423708778941     -0.56793747243821
  C   0.39412255445995      0.68977333894769     -1.67819748943840
  C   1.33059118848649     -0.53756053417662     -1.59258952955176
  C   2.85621735391880     -0.26653948176433     -1.61893831219637
  C   3.49609943555441      0.00839644884958     -0.27233355158230
  C   3.58434645343106     -0.90826344374415      0.70079906558719
  S   4.11101957032416     -0.62300938132100      2.33150269564429
  C   4.07709911271264      1.34434740729920     -0.02026905454153
  O   4.59185221492298      2.01925206717596     -0.88162264942301
  N   0.26426469430942      1.41133101591717      0.66972046870966
  N   1.02901135769268      2.19332139803293      1.44315386531102
  H   3.72068496278268      3.86114105467895      0.84011852745963
  H   2.28843413330553      2.93771163791358     -1.43083865861399
  H   0.53240474300911      1.18828671559196     -2.63970427270748
  H   -0.63819173270801      0.34186199474516     -1.62486723890377
  H   1.09386167443376     -1.19023475121250     -2.43546700284214
  H   1.08567729705970     -1.09376577920311     -0.68434327105812
  H   3.08718034032211      0.57159220749475     -2.27936785656701
  H   3.34321464972244     -1.14333900767076     -2.05075613251445
  H   3.29565518954478     -1.94139029180386      0.53970242108763
  H   0.96771150997583      2.13650553402533      2.44760750471935
