27
Coordinates from ORCA-job 11241optt
  Br  3.01818958003513      1.77635902872650     -3.65871552124911
  C   3.55540718944357      0.70565570832810     -2.21106158412012
  C   3.33607579996182      1.05659363387570     -0.92024047543540
  N   2.63407510778129      2.22597011895647     -0.51917538404160
  C   1.25321561793231      2.01976019861573     -0.30797842973126
  C   0.67004508561967      1.55237486672341      0.83755977138740
  C   1.36018085873696      1.29500494610723      2.14380156633356
  C   2.38726682807696      0.15798051529103      2.17206878797395
  C   3.74964600250745      0.47916370405799      1.52836331322942
  C   3.85811916696314      0.13733307387324      0.06771813790189
  N   4.43846767056780     -0.97966866163249     -0.23170320134987
  C   4.60886390536745     -1.36291107400521     -1.55382844933525
  N   5.10871468069712     -2.45270729316886     -1.96614360051070
  N   4.20449991149810     -0.43058476328257     -2.52558671877669
  C   -0.72829414066040      1.42458937126988      0.62242508762933
  N   -1.19494514114430      1.76853309175182     -0.55165070439572
  S   0.04702531618679      2.23429058081446     -1.51161557803543
  H   2.82050662878520      3.01251625099859     -1.12777788539707
  H   0.58833885244761      1.08147114554926      2.88606236713663
  H   1.85597412352263      2.21501774371252      2.46776266834471
  H   2.57909477265593     -0.07796214569169      3.22007765689852
  H   1.96745657292097     -0.74551552980943      1.72352431593826
  H   4.52043613693932     -0.10771756415997      2.02384931421759
  H   3.97230370295763      1.53900384237102      1.66632115001769
  H   5.37661735178956     -3.02052350704339     -1.16802866688074
  H   4.37509387864681     -0.68650938369874     -3.48712558753918
  H   -1.42637546023655      1.08148210146937      1.37809764978918
