30
Coordinates from ORCA-job 11244optt
  Br  1.81940154720870     -0.90329571500707     -0.57208324430001
  C   3.52795651562832     -0.30282988443883     -0.06518589945479
  C   3.84544540776950      0.99105513108684      0.12124379725429
  N   2.83310311910875      1.96119344868816      0.06404942964069
  C   2.89489799201980      3.36563925381619     -0.37106293795632
  C   2.92738261138531      3.62502438042640     -1.92190008320347
  C   4.08368984950167      4.56263336191199     -2.37589686053040
  C   5.50827669567110      4.14756679683801     -1.86532487648290
  C   5.20079605996832      3.19442207745760     -0.72547803830233
  C   4.18700798410439      3.88748905197104      0.19334207279775
  C   6.09453206462945      2.32284497205161      0.10324991966628
  N   5.17711338473678      1.24132667752269      0.60898400963195
  C   5.85766167561491      0.26341435413303      1.29053145811102
  O   6.94974802565930      0.43259498363234      1.76501071833304
  C   5.27664388027342     -1.15619298653617      1.26097343886004
  O   5.72720971136165     -2.05997449137700      1.87468773423945
  O   4.31854265666688     -1.35236464717184      0.31832524972491
  H   1.94332918737368      1.52778754492864     -0.12627631437869
  H   2.01453130845414      3.83505339292154      0.06892625089841
  H   1.98415042622978      4.07189432246382     -2.23831675399358
  H   2.99267810507925      2.66501603425561     -2.43937864703919
  H   3.85896492260378      5.56977714552840     -2.02258291626212
  H   4.07827388824164      4.61967366979922     -3.46451110261101
  H   6.07021722648536      5.02990329271050     -1.55434468547565
  H   6.07353809202462      3.64784589717227     -2.65360534961544
  H   4.67201406151334      2.42865778242051     -1.29085658619252
  H   4.26913516227885      4.97152074226611      0.12743110913964
  H   4.29292063836831      3.60050691015776      1.23879884128139
  H   6.54060235205560      2.81720173184697      0.96408845250093
  H   6.89123544798330      1.83361476852363     -0.46083818628139
