27
Coordinates from ORCA-job 11254optt
  Br  1.03853948291749      0.22124696585183     -0.06501255135432
  C   2.91644293652355      0.13074222039500     -0.17856549239867
  C   3.65170456033429      1.26751184663940     -0.20524663049773
  N   3.00451489690915      2.51918378464091     -0.19164099739643
  C   3.35109652031537      3.31739542685896      0.72696208851124
  C   4.51365029561665      3.16464970998228      1.61056537652794
  C   5.28410136061039      4.01444302916473      0.52799881823288
  C   6.58311158942995      3.33588536758363      0.12640830912234
  C   6.03273452311204      2.16375202743022     -0.77614192429226
  N   5.07911779484710      1.16195387155785     -0.22229541354368
  C   5.69974930236571     -0.06279702854560      0.13953448105603
  N   6.93134225724056     -0.19042235279994      0.46216559960262
  C   4.86358760511360     -1.24588676417585      0.05192772321165
  C   3.53720341365517     -1.15470098115678     -0.11914526538118
  C   4.45439854827882      5.27846724491818      0.70971288916461
  O   4.62134570469323      6.43749527757624      0.77934503266398
  O   3.13632554281743      4.69510663623740      0.66915071425853
  H   4.89813335950217      2.16852509082099      1.76578439708953
  H   4.43925962882083      3.71247060578168      2.54613650698239
  H   4.78303046968865      3.83408157289267     -0.42079584242364
  H   7.17108825552156      2.98981127334453      0.97523678684064
  H   7.21455712365917      3.95089222742419     -0.51523439691535
  H   6.86432274353353      1.58091757112819     -1.16815205563028
  H   5.53921282364062      2.63130427905083     -1.62999848212467
  H   7.42827288570343      0.69002050196300      0.54667211412524
  H   5.37661896509414     -2.19105181422318      0.15185671194098
  H   2.91453741005533     -2.03799759034139     -0.16522849737239
