29
Coordinates from ORCA-job 11251optt
  Br  1.11915475697123      0.06731091639916     -0.37723606155440
  C   2.98909470664567      0.06510502820642     -0.22183148070959
  C   3.70715255807128      1.21739015647724     -0.37169576470096
  N   3.01084636770986      2.39680770242478     -0.69783686853605
  C   3.11230938300988      3.35907924374017      0.11458646372010
  C   2.60543029659949      4.77208912946118     -0.12325827749791
  C   3.39003124470159      5.81346936923403      0.73459497815516
  C   4.92198552453670      5.53652474485174      0.95549743598338
  C   5.12824797571600      4.09148074061268      0.53878768563617
  C   6.34126594241930      3.18832157842080      0.51364543005427
  O   6.03244785239607      2.18918147737465     -0.47549416060300
  C   5.15747682317497      1.15448159963733     -0.21106660230648
  C   5.71111810707745     -0.04299088456272      0.07548415892281
  N   4.95772330915171     -1.16265558818279      0.23482085659370
  C   3.57805452063088     -1.22135460236150      0.11339363959882
  O   2.98328024737022     -2.26570394633474      0.28742435501108
  N   4.04656155615465      3.28126745770719      1.17714482339540
  H   1.54576447962231      4.83204510429374      0.13232649023978
  H   2.67445050939203      4.97956759740456     -1.19117128790486
  H   2.90978101688397      5.86815402404886      1.71229000718582
  H   3.25425481095562      6.79780282199194      0.28844985142397
  H   5.18009310041995      5.71456265231550      2.00141180284927
  H   5.53390844909789      6.20171810074658      0.34593841799942
  H   4.91384037409087      4.12723596537603     -0.53214571062901
  H   6.54454263535496      2.72321651884182      1.48020143739903
  H   7.23421734442642      3.68453985357031      0.13520258777420
  H   6.78159106090561     -0.14776144715870      0.17645446338619
  H   5.39570394254608     -2.04416473408134      0.45844627565658
  H   3.71767110396729      3.76527941954503      2.00563505345712
