32
Coordinates from ORCA-job 11256optt
  Br  1.03024707876151     -0.02819017055703     -0.34485372897773
  C   2.88226630338794     -0.19182628903157     -0.08016568040109
  C   3.56395514695619     -1.33811938392962     -0.27455569494261
  N   3.00199209248673     -2.49211601361237     -0.82545763926898
  C   3.02644787768131     -3.76401657302606     -0.07669033656174
  C   4.33071808144142     -4.52679892448760     -0.36117246666435
  C   5.51678589151091     -3.63931019763724     -0.72422393192169
  C   5.84742231842533     -2.47788216044329      0.21487975979360
  C   5.95031662926086     -2.85014328448880      1.72546814869310
  N   4.77391278120774     -2.75400281645431      2.55831559327062
  C   3.72762870726544     -3.75048870401157      2.49795285837652
  C   2.64669795408568     -3.62815626781488      1.41773391244239
  C   4.97432319957037     -1.25174946368383      0.09744994402475
  N   5.52895840477890     -0.13771125059733      0.43185320322430
  C   4.81723498419222      1.04849188090499      0.41950075875246
  N   5.27960478336897      2.20904734167719      0.55063633588800
  O   3.43613862171456      0.96503334203413      0.27956823704485
  H   2.07371251732714     -2.29763175777013     -1.17120396726032
  H   2.22207263105950     -4.33695400075689     -0.53745503235404
  H   4.16522099838574     -5.20269288687173     -1.20175681342284
  H   4.57989598000995     -5.16286049277759      0.48887234150948
  H   5.36619915589796     -3.24325990409634     -1.72997688347760
  H   6.40724445333271     -4.27137736392094     -0.77162768440680
  H   6.84163992229664     -2.12316718312550     -0.06291130712873
  H   6.69763182942345     -2.18416715098483      2.15806659498885
  H   6.34237037981740     -3.86873485531410      1.80120909558768
  H   4.41976502501411     -1.80959450453515      2.62962405690996
  H   3.20390843697578     -3.73490037262789      3.45800023940788
  H   4.21137922380565     -4.72826262845241      2.44686584783583
  H   2.12646063932007     -2.67399802731044      1.55259004450067
  H   1.90698706556131     -4.40207331776355      1.64244958839786
  H   6.28486088567645      2.14461338146671      0.68201460613973
