29
Coordinates from ORCA-job 11259optt
  Br  1.15160647078261     -0.38135672633315     -1.20280541596778
  C   2.89400219796089     -0.17109773794673     -0.52644112921802
  C   3.67506430904980     -1.23612909815875     -0.29886134543371
  N   3.35724664375237     -2.57722508166626     -0.45286981517958
  C   4.49552469171258     -3.42306576638134     -0.14208040795929
  C   5.69114330551342     -2.46552984251863      0.16443255497308
  C   6.83946416032416     -2.48393404790557     -0.85924930134208
  C   7.69705394132319     -3.75181073034631     -0.83089089060419
  C   7.05758084220525     -4.95048629386138     -1.50418327386075
  O   5.79036043699079     -5.27379118952548     -0.92159716606117
  C   4.78488693033548     -4.40306475482131     -1.24607243157754
  N   4.13042784039663     -4.42475572887234     -2.31667405087119
  C   5.03126860900529     -1.10242841669611      0.18977197636274
  C   5.60739211386643      0.05125374974692      0.55027090983977
  C   4.95877441158380      1.35851518328144      0.50154466443496
  N   5.43803707016574      2.46350218560387      0.90970618921410
  S   3.35533187615260      1.48188602654149     -0.24579058168410
  H   2.82797627517904     -2.84696611916474     -1.27257322770215
  H   4.29138163946523     -4.02739140698077      0.74771777781195
  H   6.10806072602639     -2.69913974618765      1.14556240730869
  H   7.47653173232327     -1.62566265577242     -0.63881566446274
  H   6.43394598434605     -2.31607689659245     -1.86299980362553
  H   7.93688280021173     -4.00737732019752      0.20485817998131
  H   8.64471174775506     -3.55717854618803     -1.33928743073288
  H   7.67006072048959     -5.84187026350668     -1.38357615211491
  H   6.92168977665865     -4.76581440463003     -2.57478070777202
  H   4.44662461988316     -5.17516938361694     -2.93048487133386
  H   6.63167031596132      0.05907405441825      0.91135954596315
  H   6.37529781057937      2.33609095827866      1.28780946161374
