23
Coordinates from ORCA-job 11261optt
  Br  1.16670059157592     -0.52283365887864      0.60154878340191
  C   2.84267393396946     -0.04816031471685     -0.09650094498429
  C   3.34072210633145      1.17904238901269      0.07330508741042
  N   2.82462304962113      2.26785420785039      0.77766173169414
  C   3.51967268839200      3.49113524775839      0.34395268024161
  C   2.82395396444856      4.21640811955105     -0.71176425506663
  C   2.23944296778538      4.79921557033164     -1.57775109607793
  C   4.90975894494412      2.95835931186020     -0.03566280382409
  C   5.64830489301939      3.02814090620989      1.31673964328289
  O   5.01138823418540      4.06300396768563      2.06526908091961
  C   3.78877370746621      4.35851124924803      1.58802823328305
  O   3.05681381566419      5.15168966129992      2.07860519759833
  C   4.64246346169697      1.54300683778768     -0.46985302653507
  N   5.44760307654492      0.84990036498743     -1.16859314173254
  C   5.15629766855837     -0.46919241386175     -1.53276298224420
  N   5.89732341390493     -1.17869012342810     -2.26636237372330
  S   3.67554246740615     -1.30214049373940     -0.96299085077409
  H   1.81908640899765      2.33630258955930      0.86224593635153
  H   1.72107096515924      5.32493445993539     -2.34451953802718
  H   5.40244759419511      3.54905841473757     -0.80240031826099
  H   6.69707650388635      3.28693025885112      1.20295933924700
  H   5.56075401003822      2.09223089065957      1.87081245603634
  H   6.72550553220879     -0.64670744270119     -2.53196683821654
