22
Coordinates from ORCA-job 11263optt
  Br  1.10452633157507      0.17487133507782      0.05838691792681
  C   2.96152726446699      0.00460860569456      0.05905331705369
  C   3.63099671931967     -1.16379815472022      0.05898786956141
  N   3.23808529785049     -2.46863705199543      0.05860163201557
  C   4.36305102197935     -3.28007395877913      0.05865846432390
  C   4.44899247482910     -4.63390396767710      0.05842372577701
  C   3.28479834859270     -5.44410902563879      0.05823363314391
  C   2.26883140357973     -6.08595534168725      0.05856432494777
  C   5.80445950005926     -5.22663043014543      0.05855924297436
  O   5.97527355919904     -6.42156034858020      0.05840794454837
  N   6.94014854825523     -4.36075215837634      0.05889596976552
  C   6.80087657296113     -3.08710207871364      0.05914443776594
  C   5.51990125561088     -2.43828549238394      0.05908463015286
  C   5.09004590804021     -1.13389357125439      0.05932356499997
  N   5.77660651930441      0.04304031459422      0.05977468316933
  C   5.07019357461207      1.12339623536481      0.05989387815844
  N   3.71483988941148      1.16315277035151      0.05954661679822
  H   2.29156460647486     -2.81541492583391      0.05827546785689
  H   1.39058314801388     -6.68579128634000      0.06181264861100
  H   7.69979140287623     -2.47410823431047      0.05936790423516
  H   5.55957085300656      2.09004363223268      0.06032208324508
  H   3.24033579998157      2.05290313312065      0.05968104296880
