28
Coordinates from ORCA-job 11275optt
  Br  1.98586298151586      1.62413430993468      0.07329930111668
  C   3.51958630947750      0.59603721856835     -0.27316020580816
  C   3.45590798814080     -0.77698743950185     -0.26788453910071
  N   2.30980031250400     -1.45968962526551      0.00522286177393
  C   2.23152978840372     -2.91179983879334     -0.02347095427632
  C   2.50149769949045     -3.54562318505846      1.35899734955763
  C   3.92398902093541     -3.22987943799134      1.81635286504353
  C   4.94179625902762     -3.56731986474378      0.72717751979359
  N   4.60493049245718     -2.96187039988844     -0.57215707500881
  C   3.29980107574720     -3.41433822905483     -1.01810407850962
  C   4.64597896831531     -1.53676102418059     -0.56779329418570
  C   5.78277825417304     -0.86397077048573     -0.84498374669549
  N   5.82456768168484      0.48934301079129     -0.80839570259254
  C   4.73612731736794      1.32369836791888     -0.53338603763306
  O   4.88077026342573      2.53059961267544     -0.53791932507492
  C   0.89635160885296     -3.30871599633565     -0.49149237464903
  N   -0.13788862479853     -3.65084778571965     -0.84622878304263
  H   1.49129830400118     -0.92605501879646      0.25797021876477
  H   2.35702822531341     -4.62593742650828      1.26762993163230
  H   1.76662102724165     -3.17471047874784      2.07445207178317
  H   4.15297727852898     -3.78986659743496      2.72392157710866
  H   3.99890485424759     -2.16909832582352      2.06924330784083
  H   4.98583234729549     -4.64885753590218      0.57131241527581
  H   5.93875313475728     -3.23299517880345      1.01165887153431
  H   3.27851643119707     -4.50351497742628     -1.05569624751862
  H   3.09273249346724     -3.01956268455122     -2.01286160251304
  H   6.69528699688715     -1.38590779151032     -1.09784873842793
  H   6.68166151034190      0.98249709263505     -1.01085558618861
