29
Coordinates from ORCA-job 11276optt
  Br  1.01615495486142      0.06008917691807      0.10520161971487
  C   2.88485032132229      0.02635648239687      0.00668645749902
  C   3.63573080379958      1.13540401302732     -0.12999972094252
  N   3.31886577471778      2.48399602832210     -0.32034824712102
  C   4.52221634353465      3.29568474566354     -0.06003103338079
  C   4.59373880699999      4.49813720917090     -0.99767238147979
  C   5.70451486505096      5.47408645833156     -0.60961891590087
  C   5.60394773382677      5.84571716141735      0.86292158427167
  N   5.64992899717008      4.62991583229104      1.66368698861128
  C   4.52154444021568      3.77027584797542      1.40874394008450
  C   5.67118872002053      2.29591419085604     -0.24957618375612
  O   6.81904541390783      2.53775505341616     -0.46331082751120
  C   5.04607622051639      0.91741052658210     -0.13677295009800
  N   5.67168645041183     -0.19896076268738     -0.06533949161397
  C   4.90087734557704     -1.36081312712080      0.03839876051858
  N   5.34687303705605     -2.54690302076583      0.09744239795216
  N   3.50705738724294     -1.18066182798102      0.09457428818135
  H   2.48542570658828      2.80534881564355      0.15724677745699
  H   3.62351939193840      5.00385782443587     -0.93844794930327
  H   4.71068857811981      4.14889847968593     -2.02465103621421
  H   5.63084899025085      6.37187305271766     -1.22529677271075
  H   6.67695765812707      5.01616076508403     -0.78926778962852
  H   4.67139735479918      6.41017143985118      1.03443623964142
  H   6.43903932814565      6.48384329294108      1.15081849688672
  H   5.74192060968280      4.83050760533226      2.64973752521603
  H   3.55137212746684      4.27876203309447      1.56160692211085
  H   4.55140542310407      2.90515723492398      2.07637152024240
  H   6.36105285530416     -2.52665310663210      0.05549333228180
  H   2.96607436024104     -2.02633142489135      0.19796644899139
