22
Coordinates from ORCA-job 11282optt
  Br  1.21109427248109     -1.11692800167387     -1.02466124032791
  C   2.87467131512703     -0.41282258035995     -0.54116674328133
  C   3.09244640613682      0.91451107944093     -0.45539024493611
  N   2.14008573731313      1.88911992716966     -0.76927970613002
  C   2.74762609399989      3.01075795094926     -0.60825117966205
  C   2.48544971303926      4.43940658696663     -0.82125011705698
  C   2.73263473007587      5.18475826994819      0.26241340917527
  C   3.98371650730030      5.95765370748371      0.19839557243969
  N   5.05392460615698      5.26400715872579      0.07233304856793
  N   5.08012277127904      3.88707456982195      0.01062934198543
  C   4.15070243891253      2.86691864423514     -0.15896548634241
  C   4.35361568320850      1.51515401579976     -0.04705590761604
  C   5.50094647913616      0.77835942890727      0.45147532598851
  N   6.44479102014400      1.19761313416360      1.19048998350456
  C   5.59686260977996     -0.70421678841642      0.10306987312914
  O   6.60797434399101     -1.32576781856336      0.11931066010479
  S   4.08425100033427     -1.62928097562042     -0.28032187064466
  H   2.79243889710867      4.81353939306684     -1.79531783555463
  H   2.48401225790884      4.78539636815428      1.24405067648663
  H   4.12591034576591      7.02491949691603      0.31296210193239
  H   6.04145835642894      3.58969592535510     -0.04128409759308
  H   6.30226441437174      2.17013050752984      1.46481443583088
