24
Coordinates from ORCA-job 11284optt
  Br  1.25066108244836     -0.39686017336829      0.71772725869353
  C   3.03118063546549     -0.29565163462370      0.13583427904310
  C   3.59652824797844      0.91224604366997     -0.16793885608380
  N   2.92140660790363      2.08748126146560     -0.10206565316123
  C   3.58328028341037      3.36547594062126     -0.28609881221825
  C   4.60549037599444      3.26016089012747     -1.40310981393591
  C   5.64892433319916      2.25196041824367     -0.92610444636552
  C   6.34285972965755      2.81122401166340      0.30088944897382
  N   7.56120857818802      2.77533345912103      0.58267714418901
  O   5.53658372570015      3.41954872526579      1.23925058823502
  C   4.24025849893608      3.78103239375794      1.03268026780111
  O   3.65582445089613      4.36303342425694      1.88801382285730
  C   4.97366456697056      0.93688046664659     -0.61070405101032
  C   5.61386992712392     -0.23569005052450     -0.70960402564957
  O   5.06786978587561     -1.41360000986598     -0.42324362788609
  C   3.74608727461176     -1.54127496089926      0.01864251309124
  O   3.34676134691915     -2.64253568858314      0.24508337930097
  H   2.01956398026559      2.07775788056368      0.35257102622417
  H   2.82083884904516      4.11311679260424     -0.49218051903583
  H   5.06313223918683      4.23237902131452     -1.58851796836344
  H   4.12207193613004      2.91652188981272     -2.31734102240306
  H   6.41684782984023      2.09269537026123     -1.68217178550290
  H   8.09251384406787      2.30406104940420     -0.14436818928621
  H   6.64357187018540     -0.32629652093539     -1.03292095750714
