23
Coordinates from ORCA-job 11286optt
  Br  0.65420048444601      0.41032119990447      0.65102643801789
  C   2.19495658458245     -0.43248189794255     -0.01230607694381
  C   2.93166130920519     -1.41081083439802      0.61849094431324
  N   2.32742540703535     -2.42133309117974      1.40022231224064
  C   1.32751836027075     -2.99470262145213      0.54656092067332
  C   1.55624873131060     -3.50126741740051     -0.68327089665981
  C   0.63351674714960     -2.66713279791813     -1.47034944766671
  C   -0.53487171278962     -2.41180304335250     -0.53818788410194
  O   0.08815071296318     -2.51120015333483      0.75470657712406
  N   1.07553946404983     -2.01320867466181     -2.46195067604039
  C   0.73568119555864     -0.62273709703523     -2.61924143689222
  O   -0.31047924394831     -0.19374334591846     -3.00616495146634
  N   1.91241290954441      0.10616694845567     -2.39086003372002
  C   2.63000119151548     -0.09802399786578     -1.35357154574505
  N   4.02282468708800     -0.11003824637154     -1.45674054170805
  C   4.76621902652631     -0.83566383920877     -0.59467901992781
  N   4.26222276484513     -1.54773116077526      0.35906938440770
  H   3.02323006576590     -3.07131812292489      1.74639328994839
  H   2.54103465733784     -3.74918289861295     -1.04643825082319
  H   -1.28030656088195     -3.19994712910886     -0.65907802611914
  H   -0.99698017645257     -1.43281537428373     -0.63719998707357
  H   4.41459503216451      0.20081918710303     -2.33695732196409
  H   5.83719836271324     -0.83216559171745     -0.75747376987308
