21
Coordinates from ORCA-job 11285optt
  Br  3.00574323630976     -0.25274475197748     -3.49431315874965
  C   3.53241463212850     -0.34071835540582     -1.69323070074761
  C   2.89830840706960      0.36080316466975     -0.72629379934713
  N   1.94858879255007      1.29539541329241     -1.04846930196876
  C   1.23130690266772      2.08483498670623     -0.21391443739962
  C   0.98328400202912      2.00663263225351      1.13010019268131
  C   0.06856061312666      3.08770061558606      1.40028744410905
  C   -0.13815313317209      3.71470598828562      0.23213408454196
  O   0.57247231649301      3.09879411938443     -0.77529618293938
  C   1.41980892816104      0.92604368431034      1.95680431302677
  N   2.36630572355820      0.08979592251156      1.75285563476967
  C   3.27295738704242      0.05012190049680      0.71175325668585
  N   4.42306650699601     -0.42189249460116      0.99838680651356
  C   5.34070119831585     -0.71990725664494     -0.00736572626190
  O   6.52367716651166     -0.70332297080227      0.15596174988620
  C   4.74712364695802     -1.10015011499598     -1.38114801005805
  O   5.30081270515987     -1.84980234811198     -2.13371104357427
  H   1.84015360446852      1.48155466340195     -2.04044655206424
  H   -0.35794419266531      3.34961690180620      2.35380382888865
  H   -0.71612655553468      4.56979423066460     -0.06675306303240
  H   0.85693811182600      0.77174406917016      2.87685466504000
