25
Coordinates from ORCA-job 11287optt
  Br  0.94560455142296      0.20827322991820      0.25568853794984
  C   2.80599596995150      0.22570926855776     -0.05942833288607
  C   3.49873647091679      1.43982654476897     -0.08900740634852
  N   2.68869487191408      2.59659059210881      0.09202551561645
  C   3.21078880471343      3.52942457810406      0.76052719527364
  C   2.99493125028427      5.03716596004466      0.73981185848697
  C   4.48838079007043      5.52481895361188      0.48086706903336
  C   5.02932103242563      4.15324592997801      0.10070902540055
  O   4.48814835817106      3.37097465696963      1.19043734316003
  O   6.28427053896422      3.64230406819017     -0.08976157716334
  C   6.07176880482221      2.37407656596446     -0.73217954959698
  C   5.93120098211754      2.61949010049853     -2.18535653410407
  N   5.79499840745298      2.82898806933640     -3.30316510185209
  C   4.91801371371788      1.33414818379151     -0.34990468158345
  N   5.49035408470006      0.14906580688923     -0.49970878628328
  C   4.79615658335700     -0.97954168826071     -0.43220260733507
  C   3.43566686049218     -0.99433482007701     -0.22785075349499
  H   2.62797814383292      5.40349004165673      1.69619218070644
  H   2.30556740880365      5.32590500440732     -0.04953859912482
  H   4.94083681725630      5.91161012059375      1.39013621288344
  H   4.55255913837038      6.25562877566181     -0.32106506660969
  H   4.47459499298233      3.91863283024230     -0.81996325687070
  H   6.97954669516460      1.80468472115364     -0.56706446225268
  H   5.35581792112504     -1.89933111249375     -0.55016434753721
  H   2.87506680697048     -1.91684638161642     -0.19003387546776
