19
Coordinates from ORCA-job 11296optt
  Br  1.10100078980077     -0.22403119387397      0.05602219036451
  C   2.96815760942064     -0.11909038350541      0.01980410015423
  C   3.80883368242462     -1.25300543230644      0.01042984779040
  N   3.41680777971362     -2.47415408715173      0.01318042522832
  C   4.59461925618351     -3.27845518811766      0.00810636405600
  C   4.54605240245635     -4.69527158553790      0.00555284996397
  C   5.66014075060142     -5.46578872630821      0.00589640358262
  C   5.48987684317116     -6.95418392742753      0.00212888468480
  O   4.40512530839390     -7.47014437026122     -0.00294912527497
  C   7.04487778864388     -4.97671281199486      0.01108988283596
  O   8.01214298412317     -5.69398363962829      0.01873115177883
  S   7.33930430217054     -3.20053535720273      0.00353078789830
  C   5.75437188951897     -2.57404313324685      0.00504322641256
  C   5.35455036157970     -1.14456990205640      0.00383773978002
  O   6.01255885446638     -0.14627828269257      0.00015507115240
  N   3.89436778597533      2.12565207177075     -0.01205128677841
  N   3.49087587878214      1.08854172438566      0.00258990452137
  H   3.58096678438541     -5.19113959329615      0.00289244188066
  H   6.41836894818844     -7.54180618154847      0.00400913996845
