26
Coordinates from ORCA-job 11292optt
  Br  1.19696520109844      0.69785191484507     -1.90984846082577
  C   2.83269886244227      0.41601234244654     -1.04194828842629
  C   3.18685787206528     -0.77300171686652     -0.50416361133788
  N   2.35565559250284     -1.93783477597321     -0.52003495000019
  C   2.38683297546617     -2.85631767485145      0.63706880260856
  C   3.09969807055484     -4.26700698429309      0.44854292077818
  C   4.44460355888496     -4.47924453652420      1.24226045566863
  C   5.47834062016845     -3.30047240318812      1.23381558233144
  O   6.61114449788245     -3.40313635500596      1.57641799741247
  C   4.66797124257212     -2.15215413249955      0.66827880516339
  C   3.38790908754310     -2.23246033486638      1.53741385478875
  O   3.32543670727663     -1.92129433151400      2.68526553830008
  C   4.52973722607462     -0.76417419258344      0.12283248696769
  N   5.32843650351579      0.22980583123840      0.19612411238082
  C   4.95188078918376      1.43451378550253     -0.39873843834559
  N   5.64208112332835      2.49511070274134     -0.43511523815429
  N   3.68528962474417      1.46401557839327     -1.01262724642774
  H   2.28596021750805     -2.38999353855306     -1.42146248006620
  H   1.39496163387328     -2.96790469955137      1.07076034950661
  H   3.28216367718307     -4.42292906731106     -0.61685234076990
  H   2.40498376541464     -5.04250559359704      0.76662448406385
  H   4.94992311775800     -5.36965866693703      0.86851404243471
  H   4.22596405875230     -4.66575039037522      2.29652916351606
  H   4.40773896034048     -2.67701424450306     -0.25349306008604
  H   6.52406269644510      2.33921800123036      0.04364123188447
  H   3.42670231742080      2.34532548259626     -1.43180571336581
