21
Coordinates from ORCA-job 11298optt
  Br  1.07511319870323      0.16884264498390     -0.05383616027740
  C   2.94447597858969      0.07112080205378     -0.04930831572852
  C   3.70474938001065      1.20342943047152     -0.04694882150180
  N   3.09037224214932      2.43277963165303     -0.04638648849744
  C   3.81062973587296      3.49518254420815     -0.04505586433835
  C   3.20926963699936      4.81296013247304     -0.04398320872946
  C   3.99797767226540      5.88829043532732     -0.04368427625645
  C   5.47794885520106      5.75986814921262     -0.04470441108733
  O   6.18273938284974      6.73430479132271     -0.04549103966772
  N   6.05579941824551      4.46887921770830     -0.04469967897949
  C   5.28545892234506      3.46536192924009     -0.04475279415400
  O   5.87502443404803      2.25080526529722     -0.04449432963701
  C   5.15221837822491      1.09440657077592     -0.04508392566004
  C   5.86764507588881     -0.04314547059603     -0.04397399871130
  C   5.30183169031975     -1.37306317900460     -0.04462235386009
  N   5.89836114121419     -2.49022911392108     -0.04260656164208
  S   3.52326402322674     -1.53683551855388     -0.04919257085799
  H   2.12809423958098      4.86360934862236     -0.04350047912812
  H   3.61444374546027      6.89925389988282     -0.04295793472518
  H   6.94821071021294      0.03512628518008     -0.04245717740320
  H   6.91037213859136     -2.37394779633729     -0.04025960915703
