25
Coordinates from ORCA-job 11291optt
  Br  1.14200886907904     -0.24865294720131     -0.15708247690281
  C   3.01669815172412     -0.20806213176383     -0.06876987362761
  C   3.71295010254201     -1.38162180031601     -0.06206656691416
  N   3.11083745651219     -2.61706391234735     -0.07989302468559
  C   3.94889854025857     -3.73033420017055     -0.36872430262688
  C   5.25712299363346     -3.59938087927456      0.39920137707474
  C   5.97130841716353     -4.91726637307982      0.15210972046999
  C   4.82380741433071     -5.92561560281505      0.18325940702057
  O   4.88183749776832     -7.10264364063470      0.34601080172781
  C   3.49175258742891     -5.11892298218640     -0.00133509518255
  O   2.38683658354107     -5.53244467776831      0.15420677559339
  O   5.94864143312151     -2.46197932406259     -0.05259976542891
  C   5.16435460897560     -1.32440610693041      0.00117991317407
  C   5.76341838855669     -0.12495897851824      0.06538926076503
  N   5.03514161077169      1.02848379309832      0.05424157359086
  C   3.64200461546212      1.10071996298762     -0.00147109680728
  N   2.97053135230684      2.18787650871835      0.00438670056733
  H   2.12293427854277     -2.66055447038950     -0.28695847904748
  H   4.22652288095526     -3.79694166280799     -1.43797994809338
  H   5.02230969966244     -3.48533465016406      1.46577251588612
  H   6.74332485316207     -5.16576898270104      0.87615611648147
  H   6.41510035439199     -4.92185542003528     -0.84812411592278
  H   6.83868450632507     -0.03422917754664      0.11024853279388
  H   5.52781359459019      1.90535668793508      0.10187389294882
  H   3.56815920919378      3.00860096797428      0.05896815714534
