21
Coordinates from ORCA-job 11297optt
  Br  1.10218701259178     -0.22949807910923     -0.00371548547806
  C   2.95626610842718     -0.32390235237552      0.05772037985616
  C   3.67585890467232     -1.45408815067433      0.05403528936525
  N   3.06327366956876     -2.70840186142260      0.01406660968027
  C   3.84006883191409     -3.71362854503850      0.00359260556624
  C   3.47645501727066     -5.13349333685020     -0.03775991597870
  C   4.59954972662019     -5.85512532783013     -0.04227000489052
  C   5.78233732786832     -4.94300394791843     -0.00195136153483
  O   6.95450838709699     -5.20480102809908      0.00518527490575
  N   5.23865598860710     -3.66103950060597      0.02717892826617
  C   5.89758263674419     -2.44163654394221      0.07082855667072
  C   5.13502717037495     -1.33846126997483      0.08773313204790
  C   5.61240192994426      0.03615029715477      0.13153965861267
  C   7.05830119854951      0.41259115789155      0.17217268956883
  O   7.94597736133101     -0.39215509363104      0.17421711557140
  N   4.86507225524643      1.07498674325213      0.13909734840957
  O   3.50444760465540      0.92814358382628      0.10236137624385
  H   2.45115604300424     -5.46593936664380     -0.05978726200931
  H   4.71209039771291     -6.92713921925736     -0.07058253148714
  H   6.97548589076387     -2.46752536033483      0.08874282751130
  H   7.23229653703582      1.49996720158336      0.19959476910246
