26
Coordinates from ORCA-job 11300optt
  Br  1.62661266753420     -0.67358520753035     -0.97567464404715
  C   3.38986784034192     -0.36490597856952     -0.35835559038279
  C   3.80772507234136      0.91204279995309     -0.12557299631589
  N   3.02449109028825      2.02633609037427     -0.30094802860394
  C   3.58009771387828      3.35384830323630     -0.13628526873351
  C   4.40758786978862      3.28448304813318      1.16775713214671
  C   5.57012408840075      2.44198095935798      0.67903779999009
  N   5.10136220910718      1.09983439106889      0.32816127762505
  C   6.03728401910330      0.04131237267323      0.32139551685613
  N   7.29893132495989      0.15136420733483      0.43400628874673
  C   5.41051824520889     -1.27005527663434      0.17218209760033
  N   4.18216179604598     -1.43996254566806     -0.16121128820141
  C   5.93617005904730      3.14694315011307     -0.63933867834164
  O   7.02338650462729      3.20821808734868     -1.12646629076308
  C   4.63634532625042      3.73812507761531     -1.18740754971128
  C   2.45525917757968      4.35958231242152      0.01185924697144
  O   2.59813301112975      5.52700186943415     -0.20044539390488
  H   2.22916670215277      1.89155830768286     -0.90949517300954
  H   3.85040127999944      2.83462033222777      1.98750999216745
  H   4.75868414195209      4.27759382619377      1.44854977283971
  H   6.40288102427787      2.35385217575578      1.37213306653206
  H   7.64558298255527      1.10590423064790      0.41339757877331
  H   6.05542425333540     -2.12962460818297      0.30598561075217
  H   4.41876134185688      3.35469886267963     -2.18373756089465
  H   4.73499260360765      4.82436001556110     -1.24873769570815
  H   1.49704765462949      3.94347319677188      0.37770077761673
