25
Coordinates from ORCA-job 11306optt
  Br  1.10774589527898     -0.39969232244061     -0.26090203096438
  C   2.98247360597027     -0.24903214607396     -0.07500639100976
  C   3.61600936076184      0.96377979817067     -0.37949827474298
  N   2.88434073358021      2.07181037535320     -0.77662238187328
  C   3.16900187093148      3.37742611248865     -0.35605406422095
  C   4.34817704120977      3.90527809695225      0.06230136291200
  C   5.71483190964546      3.31758072298530      0.09209779315083
  N   5.76964315832826      2.13334263833881     -0.76827925464191
  C   5.02429034317609      1.00993338070107     -0.30510149077875
  C   5.73004093634395     -0.08208931452424      0.17904852411979
  C   5.09111848043547     -1.25514860469734      0.52953734458857
  C   3.71038523523185     -1.34965280032267      0.37269593944048
  C   3.06110910515337     -2.58794644145804      0.69092345618972
  N   2.57389539565276     -3.59263725078786      0.95370478722417
  O   4.17462026833890      5.21859404143662      0.37288810313233
  C   2.87813981427619      5.51878823548322      0.15460148474736
  C   2.20438327747556      4.43686708904957     -0.29168780607729
  H   1.89953495224972      1.89418075158309     -0.89928972060809
  H   6.02552200309936      3.02275970854844      1.09603883793776
  H   6.43757823657298      4.05357138134718     -0.26669367980457
  H   5.44187880178838      2.39134532560321     -1.69411933033811
  H   6.80715163584855      0.00141047918027      0.23041010636138
  H   5.64339932664372     -2.11165895548109      0.88863993860670
  H   2.58155055500657      6.53141173799275      0.36393642410599
  H   1.15817805700024      4.38477796057148     -0.54356967745699
