28
Coordinates from ORCA-job 11301optt
  Br  1.20835634779893     -0.07090159089433     -0.36407408222446
  C   3.09296481784667     -0.15145486729429     -0.14586233915649
  C   3.74057979748715     -1.36614700230636     -0.27902247136780
  N   3.11175077131856     -2.52759994676191     -0.59743388425732
  C   3.66061833216965     -3.86705928129013     -0.45480988897109
  C   4.99729193428210     -3.77853703100307      0.27611600641294
  C   5.82833394855577     -2.63002592000275     -0.25903481649088
  N   5.09187430944442     -1.37612495365160     -0.11305556958032
  C   5.84051106171930     -0.21207131020163      0.16228897851220
  O   7.05006084400164     -0.27208359307266      0.27143905077450
  C   5.02861995276157      0.97777681114153      0.27900479426291
  N   3.74009313741698      0.97440372586212      0.12317867793314
  C   2.66607170799983     -4.70569408387116      0.34433031043617
  O   3.11235898482091     -6.04919183701611      0.45607991244719
  C   3.66056901349913     -6.57662570219800     -0.66349775629655
  N   3.98275542132396     -5.98812205000938     -1.72525405462336
  C   3.80556854756739     -4.54780791623854     -1.82040388006082
  H   2.11635841085347     -2.43827367537864     -0.74482803842575
  H   5.53980049426665     -4.71586630095735      0.15490133094553
  H   4.82415697570951     -3.62688565705488      1.34440719122087
  H   6.08275832382347     -2.77116080374300     -1.31241023886575
  H   6.75943944891509     -2.50800163488561      0.28765090245268
  H   5.53732735847873      1.90796494002721      0.49438224217683
  H   1.68985526345355     -4.69676720684112     -0.15311984894864
  H   2.55261985904311     -4.32309471924968      1.35755706804767
  H   3.81987231873547     -7.64293580855052     -0.54004562837940
  H   2.92103001204555     -4.33627151826337     -2.42704036890964
  H   4.65740260466139     -4.13444106629474     -2.36344359906435
