27
Coordinates from ORCA-job 11316optt
  Br  0.93260592067166      0.42075737509960     -1.19006266072813
  C   2.74698588798686      0.33223822890900     -0.70195338137946
  C   3.36761984692494     -0.86881256220170     -0.67169734577772
  N   2.65518959454220     -2.02798320929361     -1.07865199354408
  C   1.99612641090908     -2.89542725072074     -0.11817695890343
  C   2.78523310063674     -4.21380323930034      0.10818457587392
  C   3.62584310404628     -3.77336993929226      1.33250211002135
  N   4.93059590528458     -3.24971632348314      1.08631000181670
  C   5.30058725461391     -2.47228382923525     -0.09505361233280
  C   4.74758088588209     -1.06293752248007     -0.24086071263860
  C   5.53973437345725     -0.02501475935282      0.06398889731016
  S   5.08241295735751      1.62888249968605      0.04123014538932
  C   3.35050256584592      1.62272691213091     -0.35050488452119
  N   2.69280265233581      2.70493398252934     -0.36870077609804
  S   2.28189304466076     -2.56822411331472      1.67063568187900
  O   2.72406082014664     -1.26756434124945      2.07990518430094
  O   1.21296176232478     -3.23188003734083      2.37025031442638
  H   3.22407130071491     -2.58243788866719     -1.70160054130535
  H   0.92910221381347     -2.99773734802456     -0.31284837775220
  H   3.37599844484047     -4.51736339815651     -0.75438374870452
  H   2.12159371136373     -5.02668179732455      0.39146032574003
  H   3.66718359832624     -4.50034942119096      2.14250900391238
  H   5.31014292426909     -2.83449539921134      1.92753043104025
  H   5.07699043216595     -3.07437468046116     -0.97679765620866
  H   6.38759957080471     -2.39549457772147     -0.06492222576990
  H   6.56744822372141     -0.17418181167253      0.37459169212626
  H   3.25413349235296      3.51459445134032     -0.11188348817263
