24
Coordinates from ORCA-job 11317optt
  Br  3.55420107545881      0.91964148797437     -3.94200010642563
  C   4.03237772458719      0.48353870998039     -2.18587905792901
  C   3.56125578420455      1.13351300240122     -1.10495676969928
  N   2.68970668493929      2.23046884443972     -1.19306191867983
  C   1.47808301997443      2.32002808228235     -0.53882210176413
  C   0.95766566853309      1.57811306660422      0.50097723904478
  C   1.54170793235495      0.38788395897129      1.19977494989285
  N   2.64284014163480      0.74907585942102      2.09561890145360
  C   3.75395810293139      1.42592376454765      1.43705014075055
  C   4.15865630743675      0.72249400052584      0.15906496329711
  N   4.96638646928567     -0.27161691258549      0.25074143242251
  C   5.29903927464229     -1.01088607850955     -0.87436920447813
  N   5.91925210782476     -2.09759720112117     -0.91611442661532
  O   4.93561686941509     -0.48337200609404     -2.12019563192255
  N   -0.26926689771171      2.02736531454619      0.89905205540244
  N   -0.73079712327488      3.02096910314671      0.26875300642946
  S   0.34820972647435      3.54036204995008     -0.91919908245704
  H   2.76694581363243      2.75950180984055     -2.04835289865833
  H   1.83636939310531     -0.36458823410764      0.45573046174659
  H   0.74550895821679     -0.04490068260367      1.80276355136788
  H   2.99009705616515     -0.09195463267334      2.54304038011960
  H   4.61074103600414      1.42327332108460      2.10752287770407
  H   3.47670806774863      2.45898885186587      1.22766393670233
  H   6.17573680641668     -2.37122547988720      0.02819730229549
