27
Coordinates from ORCA-job 11315optt
  Br  1.05711253102878     -0.22783333110033     -0.01038492548690
  C   2.93685398341130     -0.22551646897683      0.07147164504641
  C   3.66454769725346     -1.36317694793332      0.20621345138009
  N   3.09286255777597     -2.64079372760168      0.32604913542545
  C   3.56768309122850     -3.59015158067089     -0.64720198827043
  C   4.87850864466771     -4.26267528288211     -0.28337920428447
  C   4.88063648794691     -5.48115189445170     -1.20490505471665
  N   3.46124279041380     -5.81428475345270     -1.20630169123038
  C   2.64848215060180     -4.78617799061449     -0.84296820386590
  O   1.44970675584433     -4.79613147390587     -0.71032768085674
  O   5.99393612174296     -3.43844510794866     -0.44661639852046
  C   6.02109789903608     -2.38745586969676      0.50380217286327
  C   5.10326340030713     -1.20725071889216      0.23374865328466
  C   5.66701518957060      0.01940686810291      0.11659522777770
  C   4.89066915235509      1.23731393380872     -0.00302860648800
  O   5.32818640568833      2.36775701070523     -0.09511466083155
  N   3.51889579604853      1.00582272932495      0.00566538356043
  H   2.07899766692496     -2.63511145574937      0.36145620019294
  H   3.69637955015516     -3.13024509582091     -1.64098283153977
  H   4.80627375842212     -4.59913260466071      0.75977190212888
  H   5.48385883113292     -6.30088141751826     -0.81999117632963
  H   5.24349153811964     -5.20415320914070     -2.19856162822102
  H   3.08647925907109     -6.70907823852154     -1.47512055258521
  H   7.04660797234783     -2.02586036623258      0.51948245874134
  H   5.77827380805579     -2.78844029626896      1.49616096177361
  H   6.74069375732244      0.14725261537430      0.13304606279059
  H   2.93724320352672      1.82839467472448     -0.07457865173825
