21
Coordinates from ORCA-job 11324optt
  Br  1.12251483231926      0.30884283224220      0.01430644193230
  C   2.95480625086371      0.06702857152530     -0.15398047773342
  C   3.55594228313462     -1.12257853435255     -0.05366573539456
  N   4.98034429579642     -1.13783597732764     -0.23892972689479
  C   5.40816923248408     -2.43455955168499     -0.20548021620003
  C   4.31792518528517     -3.29866894406752     -0.02345138688050
  C   4.61147780280582     -4.64920074239811      0.00596864494287
  N   5.86355923101239     -5.08037383549398     -0.12591772933139
  C   6.81222050110545     -4.15450539569556     -0.28452711593018
  N   6.66605811962191     -2.83388045353057     -0.33318716980185
  C   3.07386512119198     -2.51052503119134      0.09574343556784
  O   1.93521242556864     -2.89024340759833      0.24242265764402
  C   5.66277030372190      0.07023048504523     -0.13313274736129
  C   7.14013730598033      0.07655621714213      0.18371019143045
  O   7.87097857639896      0.92206011954170     -0.23290380561291
  N   5.06959728918082      1.19355863387036     -0.19821028110326
  N   3.70693848350823      1.18598350530736     -0.41578296859405
  H   3.83406239552544     -5.39352375126172      0.13976172114241
  H   7.82645273094306     -4.52309924344896     -0.38823011293633
  H   7.47901137829330     -0.73712015618515      0.84073066677193
  H   3.28395625525844      2.08985465956217     -0.27324428565727
