27
Coordinates from ORCA-job 11320optt
  Br  1.01524868996320     -0.68143867932133      1.59250110238005
  C   2.66563324104321     -0.52191564234385      0.73196803384150
  C   3.31518503439346     -1.59490923111322      0.25891286204402
  N   3.00407563537166     -2.91806697869809      0.21790546599349
  C   4.16181126792340     -3.74626639990284     -0.15182343700920
  C   3.76991066358185     -4.87232987407589     -1.09433554868753
  C   3.14532736367888     -4.31779216616513     -2.39368010830660
  N   3.76027302295810     -3.07827313236620     -2.85918467184680
  C   5.10517240253659     -2.87425168381885     -2.35525897926697
  C   5.14572579748568     -2.74207840861057     -0.82124769412710
  C   4.60812430546730     -1.40847164259496     -0.37040338755095
  N   5.18841037662335     -0.29343495012250     -0.53069604311335
  O   4.52150465809817      0.81721702642214     -0.06559396669566
  C   3.27957129022639      0.78641470197462      0.56590483622297
  N   2.75785889886926      1.86333564178586      0.95458416323325
  C   3.24128946404186     -5.35995402156304     -3.43732104042214
  N   3.34264899248420     -6.19552654695307     -4.21468286000286
  H   2.28078591592533     -3.27772654047297      0.82359903452789
  H   4.61686877754537     -4.17110652754664      0.74631866846117
  H   3.06835892391892     -5.55655428195011     -0.61511423928563
  H   4.66374717422490     -5.45379977631622     -1.32716935252923
  H   2.08441435100567     -4.12967445352645     -2.22702792066324
  H   3.16309187788968     -2.28694774096578     -2.65921008186254
  H   5.52706240919207     -1.97707084948693     -2.80677136054280
  H   5.72179514320792     -3.71829303923341     -2.67227231259897
  H   6.16407866395668     -2.88443062528815     -0.46099053165952
  H   3.35402565838682      2.66034582225365      0.74208936946677
