27
Coordinates from ORCA-job 11325optt
  Br  10.14674342566837     -6.31454705477460      4.78090326510321
  C   8.83418253483078     -6.61472094852288      3.46563941311585
  C   8.43954321604532     -5.55644861722939      2.63875816762084
  N   8.99562135911855     -4.29503429390384      2.74238033848180
  C   8.64287948280796     -3.58661244912800      1.51548919759962
  C   7.11251561074274     -3.46355614442487      1.55809639983429
  C   6.76281818473908     -4.72794385973476      0.82536805035244
  N   7.24017147882622     -4.49196169836925     -0.55059911332874
  C   7.97223298268428     -3.39490474975580     -1.03948212266454
  N   8.74638262150190     -2.49963472645639     -0.56074981100754
  C   9.21128810188346     -2.37200771829399      0.82604214577561
  C   7.44063748215094     -5.84118930917367      1.65999667956852
  C   6.95577168308327     -7.13793962565491      1.59834781258026
  N   7.35082480730814     -8.14362680469943      2.36532866337676
  C   8.27285832383589     -7.87316357931304      3.28564964573036
  C   8.68359922626237     -8.97579678336518      4.12472766692041
  N   9.01555917222205     -9.84257627709512      4.79664771838208
  H   9.93505441753347     -4.25688690024381      3.11360807775549
  H   8.90445222040735     -4.33055512170937      0.76447860682304
  H   6.74130944671472     -2.58026432382489      1.04396890561893
  H   6.76165525887373     -3.46510252133464      2.58776987746693
  H   5.69458703864906     -4.94862615096663      0.77597431568467
  H   6.73115913294744     -4.96934625184501     -1.27477337178345
  H   7.83633983915852     -3.34404992264425     -2.11972608370111
  H   8.86515293232253     -1.41989575226685      1.23472577272388
  H   10.30266432221798     -2.35307354456908      0.80698060399016
  H   6.18199569746380     -7.37453487070029      0.87344917798022
