21
Coordinates from ORCA-job 11330optt
  Br  1.29094499276209      0.36670150014754      0.93193158966874
  C   3.06245285882633      0.18884258640895      0.37100670263671
  C   3.91426670849890      1.22009875274640      0.34432359011518
  N   5.24542312920052      0.98761742816038     -0.07467971290739
  C   5.88022475380565      2.20471762974124     -0.07271869837952
  C   5.08755264326464      3.22976145686055      0.35582380422418
  C   5.86616752872039      4.45225116797435      0.27672417782904
  N   5.66699165804979      5.66799549316155      0.54274284751086
  C   7.23168842642360      3.99764586556602     -0.28848988927637
  O   8.18975762178361      4.63100428216527     -0.57942252054074
  N   7.13661358741207      2.57616402834469     -0.42714762421562
  C   3.77049834159278      2.70237407334357      0.65576034732689
  O   2.76599142976207      3.24764571719440      1.03469150807425
  C   5.73788225287540     -0.29292524588910     -0.32257796206591
  N   6.93699636317099     -0.66656164988566     -0.49704285530862
  C   4.65204925937724     -1.29723414976214     -0.35667948562286
  N   3.43787909106116     -1.08454743211019     -0.03276982132424
  H   4.72194371165812      5.81428284539542      0.90117541238314
  H   7.80989498150597      2.04955824045503     -0.95970697491249
  H   7.62916088133763      0.06581583281829     -0.37466593582916
  H   4.95461977891101     -2.29220842283657     -0.66627849938606
