22
Coordinates from ORCA-job 11340optt
  Br  1.09876322542381     -0.20411669142091     -0.24525810752255
  C   2.94817287133834      0.09301516650602     -0.08875137021100
  C   3.44589805990873      1.35819796233720      0.10948753946179
  N   2.60193729393553      2.42216201450582      0.21897146463698
  C   2.87364311200623      3.78632928631845      0.22080936183249
  C   4.04012460123627      4.44352182745639     -0.03877447790546
  C   5.31607575617133      3.73215958944542     -0.34758106487986
  O   5.52155206677280      2.63950494251826      0.54790449170924
  C   4.88836195873989      1.47807182918896      0.22475055976890
  C   5.63152480623709      0.36873209920512      0.10604998159883
  O   5.13170913020697     -0.85585657921281     -0.08196921884728
  C   3.77087196419250     -1.08933766341153     -0.18168321403430
  O   3.40434478673031     -2.21720980344037     -0.33870755886215
  C   3.87959834254995      5.85547615627423      0.05535166497899
  C   2.61396761960082      6.23461447474278      0.36186321003758
  S   1.58801711677249      4.87739464897719      0.57885609259182
  H   1.62334214833547      2.16882631489278      0.17717204783610
  H   6.16341059962810      4.40156806755646     -0.20694201151841
  H   5.33934362949383      3.35965231103534     -1.37669277367433
  H   6.70816198975161      0.38979881879427      0.19336038720857
  H   4.68719000362634      6.55618740726255     -0.10564284852173
  H   2.21998891734154      7.22930782046835      0.48542584431578
