28
Coordinates from ORCA-job 11341optt
  Br  1.03691555955881     -0.39863370920192      0.50185270524726
  C   2.86455836744666     -0.09344626871433      0.12572877616750
  C   3.32845810694752      1.19510708663457     -0.11454898022453
  N   2.59985445907305      2.35990228265313     -0.18033066586766
  C   3.50460348047841      3.50581221458216     -0.18278118859405
  C   3.76486291118230      4.16414092119904      1.17764819072814
  C   5.23366763504249      4.54229430729334      1.05609134643132
  O   5.83311672847647      3.44427677038430      0.38642551312984
  C   4.89726435840489      2.90936222536510     -0.53819126959817
  C   4.69220851622803      1.42721998622484     -0.36372297885015
  C   5.60394982554224      0.39651642265635     -0.40100152535045
  C   5.11739135569120     -0.88589799835259     -0.17414946639873
  C   3.77708464796337     -1.12936493531117      0.08714341082548
  C   3.55699060232584     -2.60176932748528      0.29325716188353
  N   4.89253935805996     -3.12739508889803      0.11034125936021
  C   5.84903315128300     -2.17906847468937     -0.15533000480094
  O   7.02712351389074     -2.38014830544555     -0.33420231334629
  H   1.72397920962004      2.41477098391412      0.31751646391134
  H   3.17568987264645      4.24220870708131     -0.91511551901937
  H   3.63886245156814      3.42130059435097      1.96803976575867
  H   3.11198954046814      5.01284862161717      1.37518750421402
  H   5.73600998955425      4.66854430679702      2.01305967789786
  H   5.35466656010129      5.45993791346194      0.46765053877463
  H   5.21231358101334      3.16373563088453     -1.55383981288470
  H   6.65798327474245      0.56495066725593     -0.58293180696875
  H   2.84827758071376     -3.00176575739733     -0.43767915468954
  H   3.16176395024526     -2.80540859393441      1.29281476224727
  H   5.13284141173185     -4.10003118292589      0.19106761001626
