26
Coordinates from ORCA-job 11346optt
  Br  0.93942388643263     -0.16933285688984      0.19402005717597
  C   2.82675026717687     -0.10271728413294      0.05688054233690
  C   3.57036428211982     -1.28254421769800      0.15892275025982
  N   2.97372135102325     -2.50657975348639      0.38434466563841
  C   3.70508998247356     -3.72924044419709      0.06931712389409
  C   2.88859131458357     -4.94557164114209      0.48134826761720
  C   1.99003796069645     -5.16511163510650     -0.73594010508302
  O   2.76135846736723     -4.71932675281849     -1.85766938203925
  C   3.76028634137875     -3.90440008201074     -1.46171454912075
  O   4.53243735173953     -3.39841537983731     -2.21303451540446
  C   5.09774168656532     -3.63166948168437      0.66036460752953
  C   5.82900229794194     -2.36571996533800      0.24234099697532
  O   7.02184552175186     -2.33682921400347      0.13801592964016
  C   4.96765374067936     -1.14776448426253      0.06774766245173
  N   5.58099263754473      0.01185967464645     -0.12314629433461
  C   4.85272450867024      1.10794960961911     -0.23236158890659
  C   3.46279234668213      1.10131515511864     -0.14265171069742
  H   1.97747668719327     -2.52716144736253      0.21337232291280
  H   2.33653895238461     -4.78234789776089      1.40495489518160
  H   3.55463753971965     -5.79912332838209      0.61028938438106
  H   1.07119561934757     -4.57532543789137     -0.69239032088612
  H   1.72951653264541     -6.20655894900760     -0.90495823221858
  H   5.71010033965463     -4.48807279725581      0.38222889918760
  H   5.00934877154448     -3.60481721544278      1.75159743797239
  H   5.38330920020321      2.03900698438277     -0.39146509715032
  H   2.89506241247989      2.01749884194391     -0.22541374731348
