28
Coordinates from ORCA-job 11344optt
  Br  1.46196123219881      0.38050286756793     -1.43573390799224
  C   3.13231482896876      0.15331689615237     -0.56746710269202
  C   3.55692736451104     -1.09192780504171     -0.09608137799434
  N   2.79867846517587     -2.26712222348112     -0.02942843773849
  C   1.41028544026534     -2.27357461333271      0.45612352328876
  C   0.34739653922987     -2.84318804538280     -0.50595589912054
  C   -0.22859266646721     -4.02727073436102      0.26989235030378
  O   -0.05154473132971     -3.68178525435307      1.63920037016669
  C   1.23364547098442     -3.12123011441055      1.73935388383716
  C   3.41159147427987     -3.49130821917055     -0.28926386422726
  O   2.77506781617755     -4.49709037301796     -0.51417351067844
  N   4.78269517734433     -3.45467776548035     -0.28258391800422
  C   5.48311563110452     -2.48969337995265      0.54688936893133
  C   4.91007102814193     -1.13631189969956      0.25276956775635
  N   5.69201065778656     -0.07147101301347      0.28517215464823
  C   5.12734300440689      1.08051964425831     -0.05371180342919
  N   3.89116011652215      1.22547003542937     -0.50992195044603
  H   1.17960351270664     -1.24042649029924      0.69345387118352
  H   0.78409388509357     -3.13617974666321     -1.45712049183254
  H   -0.41997054650539     -2.09131277909598     -0.68599442963308
  H   0.32260870620048     -4.94196897552071      0.03929342130652
  H   -1.29199018667682     -4.18524755191270      0.10466101003874
  H   1.99703382351642     -3.90432032116206      1.79092167221571
  H   1.27339144826819     -2.51815000543670      2.64569625343217
  H   5.19416396222230     -4.36708965072498     -0.40377501747173
  H   6.54147692807791     -2.48508808045930      0.29668118884373
  H   5.38241768663106     -2.71096990573980      1.61739653607144
  H   5.73504393116460      1.97459550430424      0.00870653923600
