28
Coordinates from ORCA-job 11349optt
  Br  0.99562622169899     -0.45852548191480     -0.18519345443323
  C   2.85872193307333     -0.20329253943366     -0.03966894635266
  C   3.70323552844295     -1.25458146659963     -0.13476419843676
  N   3.17754338316336     -2.53999673964690     -0.46349450892750
  C   4.30831158147717     -3.42884319121070     -0.63634673034087
  C   5.12552429924451     -3.41453753747145      0.65947106224154
  C   6.06872939973961     -2.29423328046190      0.33446448476588
  O   6.83836454373049     -2.66178373735910     -0.81810755768907
  C   6.97391625734488     -4.05768840847934     -1.12776240764437
  C   5.81224752383550     -4.77736665558004     -1.88634249517269
  C   4.37367572700446     -4.79470981501510     -1.28698220681464
  C   5.16426096773372     -1.06027343948726      0.05214785197299
  C   5.73417959234926      0.17028301435442      0.10207919316611
  Br  7.60625188802571      0.37611035192525      0.26295254399310
  C   5.05035461076136      1.47020267890732      0.07433279409040
  O   5.58443735817255      2.54740471173705      0.06613037156976
  S   3.28021859914338      1.44790994335512      0.17244521836706
  H   2.45482491108100     -2.84219990446819      0.18121214982243
  H   4.85915952832117     -2.84484059829741     -1.36883719197097
  H   5.63998486489135     -4.34363464637696      0.88249849711412
  H   4.49489860340091     -3.17307919481462      1.51584151126927
  H   6.75261612924029     -2.02806397387927      1.14139933612385
  H   7.26781857520396     -4.61711043713502     -0.23693517651497
  H   7.82956537909699     -4.08055984546984     -1.80183582490036
  H   6.17049134889061     -5.79257226352010     -2.07180039599763
  H   5.73682756511047     -4.28907963269998     -2.86077176468686
  H   4.22563143535476     -5.60553262345205     -0.57158217576351
  H   3.65258224446720     -4.91640528750583     -2.09554997885040
