25
Coordinates from ORCA-job 11356optt
  Br  1.30056408668965      0.91908801152902      2.63043899891536
  C   2.51193833860788      0.60384782642728      1.22256667378026
  C   3.35367508605299      1.55987320326636      0.74792665265884
  N   3.02006255742442      2.92910278618805      0.67492845741398
  C   1.82628868149004      2.92926953106881     -0.13733599500888
  C   1.60609466578882      1.94623690120896     -1.08723699253920
  C   0.30555124146154      1.47764285822837     -0.88612838654978
  O   -0.09248486288154      0.19769687150228     -1.21414463775841
  C   -0.06101508661606     -0.66801894970097     -0.10243231598121
  O   1.20148573661545     -1.25592140509581      0.25867283280012
  C   2.36971151480541     -0.57564512938363      0.38029618047406
  N   3.31665473646505     -0.96721747528590     -0.38688254004213
  N   4.47171966857466     -0.24449833331383     -0.32350789011738
  C   4.51240266843786      1.10529102399262     -0.03532625002785
  N   5.42043008326633      1.94755162003645     -0.34587526755552
  C   -0.33007128234844      2.33847814116979     -0.00891583511072
  N   0.61792732222175      3.20873066166397      0.44368609820701
  H   3.80969572288151      3.46003021323220      0.31974789676619
  H   2.37398145062674      1.41303768929269     -1.62544361436301
  H   -0.65557924266851     -1.53374006329177     -0.37558784149604
  H   -0.46987752508988     -0.15824204496162      0.76854182868509
  H   5.17258887120567     -0.59698619962385     -0.95703604435013
  H   6.18359326480207      1.53757621772135     -0.87801533762191
  H   -1.34652423403337      2.36292007357508      0.34384339662825
  H   0.51318653621995      3.81689597055410      1.23821993219303
