23
Coordinates from ORCA-job 11369optt
  Br  1.04900363374544     -0.21989123819075      0.09626036116228
  C   2.93474515182793     -0.05090943962863      0.01192420418173
  C   3.47511783247779      1.19313053707143     -0.06244350853015
  N   2.69610640320570      2.34475385064280     -0.09162346049463
  C   3.28637712706862      3.57443612277056     -0.13507060151674
  C   4.63371345180635      3.67428947008748     -0.15583912962704
  N   5.47925413095416      2.59525062980776     -0.14839928702058
  C   4.92428568206051      1.43109704838859     -0.11194148962786
  S   6.04499215584089      0.07880486138469     -0.13763516928321
  C   5.01732938572711     -1.31583954702439     -0.03260790718778
  C   3.68538678033450     -1.27844940140418      0.02963984239291
  C   4.97735139804889      5.10602217655722     -0.19496849243472
  N   6.10344855584641      5.68088635853403     -0.21681159923706
  C   3.66126199718930      5.82135031285998     -0.20226195666876
  C   3.48516419031253      7.27819711043457     -0.24053987250158
  O   2.39939928447911      7.80463614896813     -0.25569402224862
  C   2.67672739782037      4.90344167215346     -0.16613162425674
  H   1.69267535539703      2.24116297829879     -0.07526032380396
  H   5.56525187195878     -2.24752174820086     -0.02166026322332
  H   3.13180588940789     -2.20526290484728      0.09185919743582
  H   6.85193013667171      4.98268831927616     -0.20489999445282
  H   4.41524636284148      7.86818834438076     -0.25372929058544
  H   1.61742582497745      5.12053833767964     -0.16216561247175
