20
Coordinates from ORCA-job 11361optt
  Br  1.01886525532574     -0.20488887185011     -0.08938481659853
  C   2.88023121664728     -0.14718673018302     -0.00177279872004
  C   3.64743057771431     -1.23944982301180      0.00782990537590
  N   3.14315932595522     -2.52865889918280     -0.03031912331028
  C   3.91172159724537     -3.65442069247123     -0.02183407205997
  C   3.50059563614277     -4.93605586074494     -0.04373235130766
  C   4.59765081182231     -5.89393906808606     -0.02655472851394
  O   4.55292047780764     -7.08640124012831     -0.03642745392850
  S   6.19540370797610     -4.99026522224665      0.01490587999726
  C   5.35840756689264     -3.46707120459836      0.01688131007979
  C   5.87446772683405     -2.23912757163714      0.05581083947378
  N   5.04287144333688     -1.10900164376863      0.05784592235140
  C   5.65337814559149      0.13935721451353      0.10043105513839
  O   6.84087213709473      0.28221199207178      0.13126249304599
  C   4.72264248041898      1.35360710361534      0.10824750763006
  O   5.14052385426011      2.45804506912826      0.16084069725282
  O   3.38761785906568      1.11656350335702      0.05027278443144
  H   2.13812167550168     -2.61345576608693     -0.05322363923195
  H   2.47919971018781     -5.28388425129407     -0.06887429335178
  H   6.92691879417920     -2.00297803739586      0.08779488224581
