28
Coordinates from ORCA-job 11360optt
  Br  1.34889096341415     -0.25261189887635     -1.44345917567761
  C   3.01485135815450     -0.01230569291442     -0.56848944857615
  C   3.50904045560585      1.28026510955554     -0.48207176302762
  N   2.97286457348880      2.44734321992408     -0.98856419711438
  C   3.65587787022345      3.59433111185850     -0.38340537290304
  C   2.87577986709400      4.22564911479543      0.77261096176072
  C   3.70039604323342      5.33613435162720      1.39471593137813
  O   3.27383594560918      6.44063627954597      1.64447064801801
  N   4.99809226371657      4.96908256413329      1.60020230213548
  C   5.41055495134417      3.58258016947636      1.48703239873548
  C   5.00301136040713      3.00464604018823      0.12149435931963
  C   4.72573956040926      1.52206523333173      0.16042395990207
  C   5.45143373721298      0.48761615776348      0.71483152135955
  C   4.95317999447888     -0.80665626236228      0.62903449613291
  C   3.74097439827804     -1.06621974349217     -0.00533880235047
  C   3.26783631388455     -2.47769922731427     -0.04809586849952
  O   3.86169179802918     -3.38476742262414      0.47191475013367
  H   1.97195373919149      2.49589245973725     -1.11326270644790
  H   3.83017468297707      4.35675293896675     -1.14247913920100
  H   1.92940253658989      4.64899220401659      0.44211435093004
  H   2.67130947525599      3.46022474658833      1.52953938202014
  H   5.58015627911346      5.63741566357531      2.08094355047345
  H   4.96289845612525      2.97743076100072      2.28220306457570
  H   6.49038213889270      3.53142958488711      1.61277496311410
  H   5.78620274126128      3.22266708534296     -0.60809513428753
  H   6.39487083491558      0.67660591941319      1.21270896533020
  H   5.48603868710859     -1.64738535826924      1.05234455288547
  H   2.32655897398451     -2.66011510987518     -0.58909855011952
