23
Coordinates from ORCA-job 11366optt
  Br  1.12774531286137     -0.54174197938812     -0.21700123913812
  C   2.98156498623161     -0.33524692323615     -0.02492002349098
  C   3.81280936475266     -1.41741999436632     -0.07954847711762
  N   3.33071177572961     -2.69737998334758     -0.25355504235075
  C   4.22481129558560     -3.72778355199845     -0.14454008199813
  C   5.57485446573996     -3.58524530973127     -0.06350872970725
  N   6.17244308287903     -2.30985129611777     -0.07046560679141
  C   5.24396584069065     -1.23321339813065      0.06733423249443
  C   5.68491586831224      0.01404692408817      0.32924470194725
  N   4.83573440002694      1.07761980457542      0.37512239325697
  C   3.45988784827400      1.01666860290975      0.19461554245845
  O   2.77985196654369      2.02095768005868      0.24041399208685
  C   6.08529971631477     -4.89744950944030      0.05407203844485
  C   5.00431967067010     -5.73322861644178      0.02762278617995
  O   3.84165449574524     -4.99439742213374     -0.07801220765252
  C   4.86716405949763     -7.17325984367179      0.08110775934436
  O   5.80425361726004     -7.92862033790698      0.17129479978685
  H   2.33367713025768     -2.85703561172123     -0.24261167899603
  H   6.80744464040218     -2.17512985561570     -0.84621251832880
  H   6.73364937665640      0.21703928867003      0.49306301774038
  H   5.19134319869271      2.00375854270687      0.56121141661062
  H   7.11047475769771     -5.21820542683056      0.13825510426676
  H   3.82542312917809     -7.53788178293050      0.03201782095389
