23
Coordinates from ORCA-job 11373optt
  Br  1.24658880472807      0.91674471979881     -0.36797498369318
  C   3.06184589391563      0.49556180095750     -0.17596845625672
  C   3.98720919482274      1.48841206916640     -0.12384839146417
  N   3.80810475224406      2.84298705759946     -0.20102080951337
  C   5.05506136259544      3.45794894130461     -0.10550961266976
  C   6.03668104152519      2.50098403167570      0.03845306090557
  N   7.26493233284971      3.10541659078891      0.13438901783866
  C   7.05085316003121      4.46274387230617      0.04842346954812
  C   5.68366448230360      4.72024681734001     -0.10364678433790
  S   5.48403815695454      6.41855009893315     -0.21061012702961
  N   7.09941247526895      6.74995902384564     -0.05969666116484
  C   7.80733936537738      5.65839040793778      0.06758576805150
  C   5.40983607425448      1.20645691505862      0.03158512101994
  C   5.78494567385221     -0.09007672156643      0.12021053234115
  N   4.84117513048546     -1.06656521202139      0.06228505267888
  C   3.45071515817852     -0.89422273456430     -0.08427552372153
  N   2.61377869258657     -1.86016598109278     -0.13374897009974
  H   2.91120588208421      3.28166140248847     -0.31557698615699
  H   8.15242764578007      2.65176830525141      0.24675782222874
  H   8.88136352988223      5.73711088055681      0.17469659266886
  H   6.80704718173960     -0.42090883368459      0.23606148083127
  H   5.14806883905964     -2.02412571518839      0.13082952871265
  H   3.06270516948043     -2.76887773689159     -0.05640014071753
