26
Coordinates from ORCA-job 11371optt
  Br  1.14078086347073      0.09488258201744      0.21297061371836
  C   3.02390763442739      0.01283508288855      0.11153613802471
  C   3.75945892530161      1.07555546109037      0.52558151956936
  N   3.20017330822820      2.20269272082915      1.11389213227642
  C   3.23659508299069      3.49961406375321      0.48901765056604
  C   2.29596142051907      3.84696027999538     -0.71204440720262
  N   3.49348156238367      4.40580818680959     -1.36160258060867
  C   4.35100847381189      3.80062352149660     -0.49391186437118
  C   5.63952499112815      3.44224627196843     -0.51903394738770
  S   6.14251373475968      2.40016123759326      0.75941128437560
  O   7.47583196122548      1.95764819372170      0.51224004337761
  O   5.76031292043644      2.91000408154206      2.03020598339724
  N   5.15895872816441      1.00781208053890      0.47056699281218
  C   5.75601732642452     -0.11208386581453     -0.07740857243654
  C   5.05538587919060     -1.18086159217010     -0.47408637009766
  C   3.60156143940911     -1.23221680775444     -0.39214492878898
  N   2.85396909438378     -2.20984830561402     -0.73675786209578
  H   2.29000169784379      1.99676338788062      1.50120140545823
  H   3.18833577680620      4.27162083809954      1.25671515380004
  H   1.49653332536032      4.56358836258973     -0.53643797507606
  H   1.91991728371012      2.94487352179451     -1.19772164518168
  H   3.64926903390441      4.53641952218424     -2.34968640334653
  H   6.32622508398036      3.57083372406107     -1.34123208718449
  H   6.83165593495974     -0.05992547144779     -0.14080599096221
  H   5.58342917896012     -2.03657704140250     -0.87220173111941
  H   3.41818933821944     -2.98643003665098     -1.07626255151627
