25
Coordinates from ORCA-job 11375optt
  Br  1.18036429898578      0.16399260483016     -0.23497491375113
  C   3.04999903554567      0.20158318900676     -0.07373891536776
  C   3.75898198771397      1.33587695458882     -0.00742974061709
  N   3.36304210195675      2.69331293817097     -0.09285361550102
  C   4.55829966786354      3.35964937881242      0.10848947254244
  C   5.67238502698449      2.55727785839513      0.18663112411888
  N   6.83898457424288      3.31656304692829      0.24579632408284
  C   6.38293082799256      4.52374539940019      0.20385196436114
  N   6.92312748386453      5.79003802773279      0.34781365052639
  C   5.90720528724806      6.73987468194148     -0.12407805925099
  C   4.57806911970312      6.02088900445355      0.18994632353516
  N   5.00722378396818      4.64040539386799      0.07373878791378
  C   5.21100946096584      1.19917933403655      0.11375670885700
  N   5.84743178370056      0.06800728462065      0.12807813336065
  C   5.11320584778155     -1.09962698041172      0.06893905294947
  N   5.56818527542243     -2.28783005033676      0.09083527875363
  N   3.70314411881861     -0.98078426904201     -0.02121918432433
  H   2.52965535584443      2.97547265641392      0.40578125575838
  H   7.86583003761596      5.90828847971173      0.00882359547716
  H   5.98499970204544      6.91026815137991     -1.20197303998099
  H   5.98715827479545      7.69091960533707      0.39680668759841
  H   3.79247416597906      6.26961704181469     -0.51990172981887
  H   4.23820635813154      6.23388631763868      1.20600722151733
  H   6.58022375426892     -2.25001018297555      0.16019189184389
  H   3.19886266856062     -1.85359586631575     -0.05631827458438
