26
Coordinates from ORCA-job 11398optt
  Br  2.98130612466919      0.41284101080082      3.64434514320100
  C   3.60323980648819      0.03804751340403      1.90545676193975
  C   3.39196061742917      0.87273167142636      0.85670690155188
  N   2.73455650305158      2.11185279035782      1.02015155741538
  C   1.55089980017565      2.39099679354106      0.35234366676046
  C   0.91990502306669      1.83769919659341     -0.74526956415829
  N   1.28736957200240      0.75406150593878     -1.55516802407676
  C   2.47076726108867      0.94039289115122     -2.37879235239916
  C   3.74016509104502      1.36738458858254     -1.61194057112387
  C   3.96221491184502      0.48960342026672     -0.41319880564070
  C   4.63798330371952     -0.68022884666790     -0.53289626346229
  C   4.84835227870830     -1.58706033010234      0.57477971131024
  O   5.42177667071977     -2.65613180067637      0.54648274871923
  N   4.31523903784404     -1.11091526145378      1.77819447813728
  N   -0.19495929183271      2.58398590444055     -0.99377405271584
  N   -0.29650476866844      3.52848331163063     -0.13832750106270
  N   0.76251547721063      3.42809246898958      0.69159117679777
  H   2.75924271831871      2.45240286023300      1.97006088915992
  H   1.29578703287647     -0.12715390363094     -1.06115212556553
  H   2.25096159709382      1.69269869838822     -3.13823805213044
  H   2.66224608287128     -0.00250471935736     -2.89287815042676
  H   3.65211657883544      2.40823150039853     -1.29889078775267
  H   4.59810106988867      1.29489213641956     -2.28116475914451
  H   5.06466426350348     -0.98257604689944     -1.48001011925469
  H   4.45684318161338     -1.70825352287309      2.58118181568783
  H   0.86925005643601      4.09142616909838      1.44140627823351
