26
Coordinates from ORCA-job 11395optt
  Br  1.00780012758409      0.06842822621477     -0.26312017729874
  C   2.86143001440924     -0.08439295457865     -0.02814928597331
  C   3.46670981819147     -1.28188972314439      0.12661178452614
  N   2.83460205377138     -2.52094120819323      0.19965551206954
  C   3.63904155169457     -3.64307405095786     -0.25788791585534
  C   4.06050818641291     -3.64438846387003     -1.77086598054908
  N   5.47708910793095     -4.02634875109615     -1.82393351634978
  C   5.84770154161178     -4.47970140937042     -0.48224810115198
  C   5.00259648901581     -3.63140472902283      0.45416191930254
  O   5.59601014794932     -2.32740511954918      0.46021794235544
  C   4.89588178771485     -1.20001102569790      0.30585465486063
  N   5.58559744552285     -0.11122065876458      0.31659136500795
  C   4.97070732105503      1.10948296265250      0.17154167420873
  O   5.52965085555428      2.17858595053322      0.17898978442323
  N   3.57521217162112      1.06838041257740      0.00078920693568
  C   2.93102484621471     -4.88040452943688      0.07696121257114
  C   2.35069310725270     -5.89829261917443      0.31919172230629
  H   1.88495748010765     -2.52878005712795     -0.14843962742544
  H   3.90611606350735     -2.65138433998641     -2.19699147003474
  H   3.44180644155889     -4.35270051083323     -2.32172037703858
  H   6.03994011139456     -3.21998476832468     -2.06082078665445
  H   6.91226273219149     -4.34999178297951     -0.30176105336447
  H   5.58999159310567     -5.53288400139245     -0.35039663289052
  H   4.93476777488449     -3.98591379299793      1.48153484325470
  H   3.11573759124463      1.96048287064807     -0.10469179620115
  H   1.83016363849816     -6.80024592612722      0.53892509896559
