27
Coordinates from ORCA-job 11402optt
  Br  1.40980817621093     -0.65184970869407     -1.76455368543692
  C   2.75959050526615      0.12108425566606     -0.69503318528436
  C   3.64745984805076      1.01012352664359     -1.22923451490961
  N   3.34541082092253      1.82564792881591     -2.31437439427549
  C   2.06255758089568      2.41976165331929     -2.05608727551210
  C   0.93217357386138      2.43507173215761     -2.81839783278179
  N   -0.10179837911555      2.54879572294795     -1.91582926314159
  C   0.43957322128870      2.55139277740789     -0.65953883894539
  C   -0.27993386547878      2.24554653595916      0.61939280039824
  C   0.64051592200381      1.58104764606282      1.66736526270390
  C   1.24743323221420      0.16935512052503      1.38377924284257
  C   2.61597438094110      0.21959276145455      0.72945073934051
  C   3.69425391228272      0.60671473427876      1.45492688254963
  C   4.92252326444230      0.99675952882640      0.80884083461191
  O   6.01569372053204      1.14279036157425      1.26206023423401
  O   4.73330711313203      1.36910666059376     -0.54669018526962
  N   1.73386563306058      2.57865054571390     -0.73741706906749
  H   4.10414695585222      2.45033338791949     -2.55453825281904
  H   0.76964144321821      2.29760092716206     -3.87226789612855
  H   -1.08046884558024      2.49337844242094     -2.14122607709924
  H   -0.70480491298038      3.14776413979285      1.06741095403994
  H   -1.12067837776821      1.58441478681213      0.38921064585285
  H   1.45726313468614      2.26662842705435      1.89547170916334
  H   0.04199994395213      1.48816018557140      2.57554055639429
  H   0.55348989854429     -0.43465768408355      0.80135528458454
  H   1.36444672305023     -0.32028483263835      2.35152067322434
  H   3.65455537651500      0.73007043673581      2.52786265073114
