23
Coordinates from ORCA-job 11401optt
  Br  3.75593797041739      0.63551594442960      3.43621407222640
  C   3.88174108790948      0.02373594270204      1.67569941980864
  C   3.16640263314990      0.55899891831206      0.65471926245015
  N   2.31152314391205      1.60993485986240      0.95153276621887
  C   1.52994835812684      2.18593175726692      0.14179724424666
  C   0.62626375925796      3.30541412151028      0.59829525381751
  N   0.53360316933480      3.79801331426677      1.75879342214032
  C   -0.13995453467194      3.70104067556413     -0.59064461057052
  C   0.22097721731733      2.95256506786206     -1.64711095292738
  C   1.25437423956408      1.98706238111935     -1.29520645542367
  C   1.84530743312143      1.10238442913322     -2.10782371852185
  N   2.83909394953135      0.18946389247882     -1.80771795983317
  C   3.37314023283051     -0.02804084713014     -0.68334767539089
  O   4.34648660031921     -1.00366442221606     -0.76660484947340
  C   5.01427854791705     -1.56440062139128      0.27202789333261
  N   5.82449589412982     -2.51362266074831      0.14641419863359
  N   4.75160197875497     -1.01073769164239      1.50613731490612
  H   1.18900866016973      3.31587900912822      2.38114501743028
  H   -0.88060049585717      4.48578185745302     -0.57570542676869
  H   -0.18471048316471      3.03417618029026     -2.64631801319882
  H   1.54155411717011      1.06948475450185     -3.14853616039650
  H   5.90233088085696     -2.80418345394022     -0.82317377397391
  H   5.24819563990283     -1.40473340881262      2.28941373126764
