26
Coordinates from ORCA-job 11407optt
  Br  2.87104255840122     -1.90063870932670     -1.48278957019099
  C   3.14907318452446     -0.27192538295425     -0.59613173487638
  C   2.96433487632520      0.94446080982069     -1.18260984999496
  N   2.09887347966048      1.12908018026832     -2.32305581227177
  C   0.91061857727624      1.64562863628150     -1.71027503135608
  C   -0.00792530827870      0.93949513734988     -0.97675524825041
  N   -0.42009802393691      1.66986604733110      0.10690835443541
  C   0.21816344313058      2.81891289692131      0.03266973470461
  C   0.41110623540175      3.80475894966737      1.13672843454846
  C   1.91397194523286      4.02270340384948      1.46925611656306
  N   2.68226207642083      2.85585115799193      1.89471508182015
  C   3.10061117528740      1.84520802565984      1.06296822928590
  N   3.27586563605042      0.66130114053138      1.57050653981551
  N   3.46952520338108     -0.35232882773722      0.70525612429824
  C   3.34294062795954      2.09704468891049     -0.37825053958132
  O   3.66545606004306      3.18746100952875     -0.82869791467439
  N   0.95325213409561      2.88554850658211     -1.10102738677096
  H   2.49797669332535      1.74101191063893     -3.02503884118245
  H   -0.30556633920414     -0.08650955271517     -1.12083652311458
  H   -0.12606299391602      3.42276980613522      2.00501312121267
  H   -0.00791645278082      4.78504564536588      0.89347592146797
  H   1.97323686133379      4.74473680713682      2.28356826217043
  H   2.42650946389521      4.46917747434961      0.61933620276566
  H   2.43532160140057      2.49956843107735      2.80797838475439
  H   3.65771864498661     -1.24449824576248      1.13231161906080
  H   1.64270863998432      3.58927005309785     -1.31622367463895
