24
Coordinates from ORCA-job 11405optt
  Br  1.06791831208566      0.13812702551176     -0.17842136186493
  C   2.93438408552065      0.05646367116866     -0.02856266978391
  C   3.68826760282717      1.19129060929495     -0.10119812097354
  N   3.27306170440640      2.48493232600512     -0.27718395614219
  C   4.39320224716347      3.31029440850445     -0.29475565701236
  C   4.82898585814637      4.60038725121323     -0.44243564520903
  N   6.19046154375347      4.51141487780081     -0.36101890144949
  C   7.14277111537825      5.60767277592250     -0.33316358946493
  C   6.66847621590761      6.76762477385075     -1.08113842368917
  C   6.28122146546829      7.72787185863836     -1.67956947687633
  N   6.65057654020383      3.27117646619163     -0.16138092853509
  C   5.55346461594362      2.53406772909008     -0.12519864218314
  C   5.13251047776725      1.15385158760170      0.00333512536544
  C   5.72751300160632     -0.04846238060580      0.17750862742953
  N   4.96064832259766     -1.16205636386300      0.24669032282076
  C   3.55722786118790     -1.22931458468277      0.15399627176207
  O   3.00598637232218     -2.31051935751692      0.23001682267446
  H   2.30717008317353      2.74671773997811     -0.37294314050831
  H   4.34344669773127      5.54509011833756     -0.60968622523043
  H   8.07027249173443      5.22867692410968     -0.76161353321393
  H   7.34517315567111      5.89528658702015      0.70187920532118
  H   5.94562447354509      8.58132229429505     -2.21978029531066
  H   6.79616897960103     -0.18070318358142      0.26638964936021
  H   5.39146677625732     -2.06621315428472      0.37723454271378
