21
Coordinates from ORCA-job 11404optt
  Br  1.09532389098033      0.27088669468251     -0.07170245864120
  C   2.95963940936514      0.19919937520092      0.01771080022668
  C   3.68496282481233      1.34342806514413      0.03008446162996
  N   3.30447860569620      2.66983253258983     -0.00837825372467
  C   4.47228117323296      3.38415678946691      0.13081762715131
  C   5.54388755251119      2.58267999561560      0.17330947771588
  N   6.69243599692272      3.32554794223506      0.12142963888697
  C   6.24871511651533      4.53745090837122      0.06444309552304
  C   7.03249409834929      5.80375872098583      0.05097692478926
  C   6.81106049732041      6.60639694413293      1.25350283363081
  C   6.62308448239178      7.25679549130157      2.23885754857046
  O   4.86858709357035      4.65587840378179      0.04402981221058
  N   5.06242251318144      1.27311013800154      0.10524287026222
  N   5.75119815616904      0.11857383453024      0.16139227267904
  N   5.11564813519204     -0.95500065572980      0.13779530241772
  C   3.67146152482517     -1.05197573591437      0.07011730085896
  O   3.17084229885759     -2.14780967058216      0.06321856097498
  H   2.35066392968279      2.96323915055222      0.13661394478032
  H   6.76833047881827      6.38817295108797     -0.83394737889625
  H   8.08238057693789      5.52354225829033     -0.03199334841401
  H   6.46310164466765      7.83813586625571      3.11547896736794
