32
Coordinates from ORCA-job 11418optt
  Br  0.89942808106177     -0.66692549640332     -0.24309756857073
  C   2.77680533607358     -0.47243611569926     -0.23828116957026
  C   3.61071143260168     -1.51965517598045      0.14074394502747
  N   3.06134580969336     -2.77179375548483      0.53202380976768
  C   3.32384543958597     -3.90115293072059     -0.37007686608465
  C   2.24648668398386     -4.98456824784136     -0.15158065587715
  N   2.21633393589199     -5.65020483422062     -1.44122712096912
  C   2.59273264282368     -4.81694360242097     -2.47263731619357
  N   2.57249498917758     -5.01497395115630     -3.72457756754973
  C   3.07434963184471     -3.53136645748633     -1.83750192462389
  C   4.71526349957638     -4.51867706067485     -0.16175093944535
  C   5.91062572447051     -3.60166966721952     -0.41349909288030
  C   5.96881594339941     -2.36388743278785      0.48997000709843
  C   4.98932975472233     -1.28551403813836      0.11415723387855
  C   5.43017737458073     -0.02933487678956     -0.28606881827067
  N   4.62763425012612      0.96542813695792     -0.64829989459426
  C   3.32217956326533      0.74657734005971     -0.62502400072183
  H   3.36197897743056     -3.00483366081627      1.47350669036157
  H   1.29976756693942     -4.49610379982387      0.09788830061087
  H   2.51405776221875     -5.67846736886027      0.64785799420033
  H   1.61777267703598     -6.44065296364719     -1.61437521973936
  H   2.18542350698254     -5.92825036778678     -3.95857808485556
  H   2.25997914474378     -2.80378461788465     -1.89831031348610
  H   3.93363761954844     -3.12410256299732     -2.36447653926730
  H   4.79733808126078     -5.40271256936031     -0.79987079551020
  H   4.76421087198451     -4.87702723975799      0.87372597075874
  H   5.93746517989376     -3.28404326620483     -1.45852281210879
  H   6.81749298271276     -4.18701106073551     -0.24944624334420
  H   6.97247984144694     -1.93806520437636      0.45306017417261
  H   5.80022605236864     -2.67174607808789      1.52822415941455
  H   6.49536692215573      0.17903091970915     -0.31592276140039
  H   2.67324272039835      1.56186800663663     -0.92203258022738
