20
Coordinates from ORCA-job 11413optt
  Br  1.10367890544638     -0.18756242314826     -0.02262333346021
  C   2.95297822004328     -0.02810463895707     -0.02351546647402
  C   3.60105323691006      1.17010785983655     -0.02400495747497
  N   2.91260365393162      2.36417350345911     -0.02402379462404
  C   3.66562219768506      3.40101317789400     -0.02432188478000
  C   3.34699858188777      4.83425819885958     -0.02421448992836
  N   4.42402452033339      5.53400083154550     -0.02432280599526
  C   5.54382057157723      4.65414022869477     -0.02447188465253
  C   6.92674964267800      5.13497400130947     -0.02435338609840
  O   7.24796123104413      6.29407888861891     -0.02394157054649
  C   5.13661200001243      3.35922983488464     -0.02451034655496
  N   5.81109160108359      2.16672248001029     -0.02460837738868
  C   5.05124822241632      1.14259054185145     -0.02438725235515
  O   5.68518825059729     -0.07419732602098     -0.02446051248982
  C   5.04817017399201     -1.26022148786678     -0.02406047179482
  O   5.62922842326874     -2.29514283514713     -0.02440570323977
  N   3.65544725007633     -1.18698684850846     -0.02360761325407
  H   2.35689391688573      5.26881709340289     -0.02410137034608
  H   7.67836876350686      4.32613780817023     -0.02472117092804
  H   3.17926063662374     -2.07802888888873     -0.02334360761434
