23
Coordinates from ORCA-job 11414optt
  Br  1.64502920886360     -1.99357755282121      0.74839060962434
  C   3.05064090232627     -0.80996236966366      0.34720144010598
  C   2.82083859845745      0.50357682692215      0.08776055479400
  N   1.54022668759275      0.98461359866218      0.04682700118279
  C   1.01449428559418      2.24643350700513      0.27045435333697
  C   -0.21404306789771      2.58376568237788      0.75992713659589
  N   -0.38595993904304      3.94648227091258      0.70130813050620
  C   0.70321861045432      4.42303650331016      0.19381893572184
  N   1.61439079568540      3.42682367799263     -0.10078349908456
  C   2.87155461361010      3.62703920283071     -0.63313850929641
  C   3.86775468211623      2.74665827369899     -0.73620825954059
  C   3.98978524413097      1.35731235038297     -0.29166952729475
  N   5.19304496564026      0.91763659190676     -0.30469813974273
  C   5.50206067030437     -0.39538972079784      0.07136293261364
  N   6.69749260769718     -0.77061832740119      0.23175267564397
  C   4.38789067216122     -1.39804948660965      0.30626849279862
  O   4.60537963171227     -2.56853525296085      0.47028056804481
  H   0.84842351859247      0.26012212943123      0.19746333431823
  H   -0.97525088299813      1.92151018185064      1.13752499988323
  H   0.94040065654253      5.46037923915064      0.01720955783825
  H   3.02489617449271      4.64212984618442     -0.97594496346379
  H   4.79221949495058      3.11667609700630     -1.15675732070174
  H   7.31951186901394      0.01793673062898      0.03864949611582
