26
Coordinates from ORCA-job 11421optt
  Br  0.93361549264573      0.27977520568897     -0.07555819055960
  C   2.80785821674352      0.08315990480940      0.02720044987006
  C   3.34542239269910     -1.20457693229767      0.01157850217230
  N   2.56003934250499     -2.34651234268492     -0.04383946580293
  C   3.29375255788103     -3.52195599046456     -0.43182358328495
  C   2.72302653340324     -4.89746548826729     -0.10586975823478
  N   3.95369692173680     -5.68257719727484     -0.12725693441798
  C   5.09211128192738     -4.94648291519778      0.15161423538668
  N   6.30313766175528     -5.28957905901452      0.23905107359941
  C   4.57271813247810     -3.54714925587955      0.38485603167642
  O   5.41870716858750     -2.48518191468417      0.04915022401813
  C   4.74882988853266     -1.29101818173650      0.06904143596661
  C   5.49539787059785     -0.12629230296918      0.13491876392784
  N   4.96774697762807      1.08676312706378      0.15184361318148
  C   3.63946889019855      1.20145647063296      0.10485035370562
  C   3.09397464134260      2.52803093996541      0.14078125542482
  C   2.63787016495431      3.63488946314474      0.17244451484345
  H   1.63830865728843     -2.20652950085934     -0.43335394232197
  H   3.57710194056277     -3.50349267738578     -1.49211560396245
  H   2.01308355984633     -5.25924401769098     -0.84843291646363
  H   2.23970483025191     -4.88482835097821      0.87702533603730
  H   3.94892990033409     -6.68479595730471     -0.04371022570872
  H   6.43550742097942     -6.28396682082428      0.06073199637437
  H   4.29772723024228     -3.47294492176341      1.44709026403727
  H   6.57572766032412     -0.20737546927696      0.17355004992290
  H   2.23753466455388      4.61989418524940      0.20423252061236
