27
Coordinates from ORCA-job 11420optt
  Br  1.08801026945511     -0.57761275357397     -0.21341883427969
  C   2.95164280417029     -0.32702474103606     -0.13306087514344
  C   3.76329304756306     -1.39325104594273      0.00609316471249
  N   3.47491751945437     -2.72138783741111      0.14832760849414
  C   4.67858201241058     -3.52540061740472      0.03198074129653
  C   4.80623152873683     -4.58651755100073      1.13422576220248
  N   4.07059689203053     -5.69524604587927      0.55185129135130
  C   4.09144988408480     -5.68804238154985     -0.82906850779028
  N   3.67158697488087     -6.54710819477599     -1.65752584271881
  C   4.73500626007248     -4.38034384899653     -1.24290328510113
  C   5.77300955976669     -2.46915165692781      0.08899307930654
  O   6.95296688992194     -2.68386289098605      0.14385628073920
  N   5.14827839812590     -1.23066397166763      0.04740972460747
  C   5.80141601831037      0.04761912161256      0.00516740227843
  N   7.05480717361010      0.21315946226915      0.07327339184256
  C   4.87009185030358      1.15721354815172     -0.13904380115403
  C   3.53920084009963      0.97848791491539     -0.20816516414886
  H   2.58467618027687     -3.06261756024853     -0.18277052540236
  H   4.35646503799336     -4.24387121721012      2.06445467099641
  H   5.86501477635348     -4.81259767331348      1.29587801911594
  H   3.95541319272329     -6.56158291337886      1.05195082352420
  H   3.29666180472636     -7.37566894011043     -1.19820358489867
  H   4.24009856463557     -3.92588552702092     -2.09754954010092
  H   5.77903266320799     -4.57754211506729     -1.49846338065812
  H   7.56274325571195     -0.66142849402027      0.16651986040043
  H   5.32188025857939      2.13625994773976     -0.19128299990905
  H   2.87792634279460      1.82806798283382     -0.31852547956275
