21
Coordinates from ORCA-job 11435optt
  Br  1.30394590296836      0.31561674620903      0.55007011487653
  C   3.13770130148847      0.20586743725144      0.24697918082808
  C   3.95878602105998      1.27434450437197      0.14057475196786
  N   3.69680309003103      2.63691281528977      0.20103093715346
  C   4.79361556474371      3.29167994721817      0.04932689740221
  C   5.98070200845746      2.34208960974019     -0.12481061229428
  N   7.22105118069222      2.58890261491919     -0.25577360434434
  C   7.34708574721651      3.97614589327365     -0.13333962254988
  N   7.03833154578784      4.51470173652770      0.98257831602480
  S   6.00729393043645      5.83563117959016      0.62877830267734
  C   4.69654675211467      4.81132713887371     -0.04676765514275
  N   3.65860200619152      5.28841154056093     -0.57680230279830
  C   5.34241014877339      0.99093304721426     -0.10035470026275
  N   5.89970664320142     -0.15078186980896     -0.23575906628604
  C   5.05673833035114     -1.26660846159627     -0.13247698496795
  N   5.41559845650918     -2.47357251538565     -0.24459810608348
  N   3.68593876469552     -1.02082889867087      0.11932584620815
  H   7.50591255796084      4.51340590203551     -1.07301521055877
  H   3.64890947790485      6.30865742297799     -0.57978709011627
  H   6.41567782376022     -2.51708483589474     -0.41873438963249
  H   3.11064274565517     -1.84775095469720      0.19655499789889
