21
Coordinates from ORCA-job 11430optt
  Br  1.08399621446987      0.34611555580681     -0.06921780797794
  C   2.95030119015221      0.20784309079708     -0.05245531968188
  C   3.74304706686711      1.33221561731261     -0.03673286666759
  N   3.13209996258645      2.55229407632589     -0.02833888119363
  C   3.88021776664347      3.59905698423951     -0.02135157408014
  C   3.31010997693162      4.93840722711320     -0.01115998765535
  N   4.00266866589183      6.00912815369094     -0.00851066357990
  C   5.40816518167983      5.92334466809606     -0.01586417838083
  N   6.16680807239181      6.93252375435011     -0.01644005405300
  N   6.00131739736611      4.65672016308264     -0.02277015433282
  C   5.32795999835928      3.48625923912380     -0.02489698787900
  N   5.95929486404859      2.35803553687369     -0.03012545318858
  C   5.21064222677221      1.20613230647067     -0.03353230313692
  N   5.87757758207536      0.09574732310184     -0.03458208969459
  C   5.32178787717376     -1.14674356308679     -0.03820110392599
  N   5.91802665457052     -2.25980232609408     -0.03002395023640
  S   3.52394528171726     -1.37988449592949     -0.06148780191374
  H   2.22505965068534      5.01224068170599     -0.00553652641997
  H   5.60062336814557      7.77752268806116     -0.01046929948962
  H   7.01339171274708      4.62974397627951     -0.02643117107969
  H   6.92595928872467     -2.10490065732117     -0.01987182543241
