23
Coordinates from ORCA-job 11443optt
  Br  1.06962994372256     -0.23179925446505      0.21585118700828
  C   2.91640691536371      0.03549685026607      0.08481840980555
  C   3.41957747212875      1.29380279951470      0.05137164766602
  N   2.65535447424342      2.42557071052641      0.10161924315260
  C   3.26284619194753      3.66321252108210      0.02364247570376
  C   2.77735364472290      4.93179803891110      0.00200018074216
  N   3.87253174193793      5.77669065459410     -0.09048181181263
  C   3.79777400782354      7.15645902864376     -0.15005866070909
  O   2.76779198933959      7.76671905554604     -0.12249487803872
  C   5.04883019869146      5.03811600470457     -0.12806141630188
  C   4.68434855918514      3.73672137631965     -0.05840682488090
  O   5.48806857357547      2.64250121279419     -0.05830637389766
  C   4.87109060426233      1.42008233045921     -0.04177901625040
  N   5.65188846422331      0.41960071819475     -0.10154526895406
  N   5.11345257609025     -0.80633462044064     -0.07627655856350
  C   3.76924579092471     -1.14060773646949      0.01855535023594
  N   3.30288597312131     -2.32661771523311      0.04407556550882
  H   1.65341261895775      2.32507470839082      0.15370724192079
  H   1.78114737262743      5.33368098785458      0.04183484637985
  H   4.79081109672066      7.62282067524363     -0.22832117790055
  H   6.01509826902241      5.50488980900267     -0.20115436679913
  H   5.79160912439076     -1.54928619171612     -0.11943361951447
  H   4.03384439697702     -3.03159196372394     -0.01115617450078
