21
Coordinates from ORCA-job 11445optt
  Br  1.03826908095443      0.15910436320976      0.05315689907784
  C   2.92741645932260      0.10236336603319      0.04082452885216
  C   3.54813156604942     -1.12871508326050      0.03760890824671
  N   3.09561932918869     -2.41361747514836      0.03952763831310
  C   4.19479705156187     -3.25227781191138      0.03442199444483
  C   5.30674047681357     -2.49563790157799      0.02967499433565
  N   6.57654486852131     -3.01572154959612      0.02618334035724
  C   6.77552523349507     -4.37562641257965      0.02844438780090
  O   7.85771049630678     -4.88743997643855      0.02738640420594
  C   5.49787167794116     -5.26804947044871      0.03261967066688
  O   5.58293250648068     -6.46053107664510      0.03334346364376
  N   4.26638236412352     -4.62265537290161      0.03530840153749
  N   4.91238135188266     -1.17109298164118      0.03137947018754
  C   5.74494477080993     -0.02822812535330      0.02756145031257
  O   6.95685052150261     -0.18270374525633      0.02288451740851
  C   4.96432957140230      1.17432874922327      0.02995674369756
  N   3.64774706800632      1.20151116256822      0.03663091560168
  H   2.11796540065370     -2.65694803437792      0.04283415856110
  H   7.36553176318434     -2.37576930660173      0.02348935473599
  H   3.45004989498931     -5.21772962069046      0.03817389238727
  H   5.50025854680970      2.11343630339449      0.02658886562528
