24
Coordinates from ORCA-job 11446optt
  Br  0.98476233069638     -0.06186651051532      0.01856110754988
  C   2.86294621952615     -0.06621957853698      0.02374106258300
  C   3.55404465387603     -1.28390566856509      0.01152883795448
  N   2.81476972009303     -2.47552668169995     -0.00546901529822
  C   3.49477170995085     -3.54827190476509     -0.03463917519294
  C   2.92873427572847     -4.94776251221825     -0.07683535426786
  N   4.13303147729007     -5.75043668540523     -0.05741920098073
  C   5.27308547690523     -5.00217710677106     -0.08538581476957
  O   6.41886935916095     -5.36213167630838     -0.13059849520549
  N   4.85405040635864     -3.66502764003016     -0.04418171292170
  C   5.75986859000852     -2.53751747979620     -0.00375761671684
  C   4.95611980501661     -1.25531895453370      0.01188235823786
  C   5.63651508261624     -0.04751360364747      0.02715914771763
  C   4.94918759641180      1.15030658727682      0.04040820834952
  C   3.55533312453197      1.14491176021262      0.03781082269414
  C   2.86888626375977      2.40444834579753      0.04886576276401
  N   2.37123317508919      3.43784347113569      0.05777048248509
  H   2.34084859856748     -5.08310543141453     -0.98644903387139
  H   2.28712899253777     -5.12348144458426      0.78740656062208
  H   4.17055605367661     -6.74390198309617     -0.19813387328202
  H   6.42084736048685     -2.56879983623853     -0.87341785666291
  H   6.39339872731670     -2.60624372711130      0.88446427310108
  H   6.72009783291999     -0.04665025679465      0.02779442282899
  H   5.47391316747463      2.09534851760969      0.05189410228192
