22
Coordinates from ORCA-job 11444optt
  Br  1.27481623664908     -0.29926312400272      0.27976062913556
  C   3.07075964010928     -0.04140237154760     -0.15678537940120
  C   3.64636359656388      1.14894164700092     -0.27486310372445
  N   3.22400082400788      2.46351124218100     -0.22060392047950
  C   4.37032408945364      3.26311910244553     -0.09737885976492
  C   5.45793545961468      2.48362203572765     -0.18464569893527
  N   6.77022011484245      2.91184267512466     -0.18357361704015
  C   7.06385853805961      4.25065801196503     -0.07416047144143
  O   8.18929854342468      4.67076827881544     -0.11419739080969
  C   5.86829143100321      5.20319426375000      0.09754006165369
  N   6.08253325764825      6.42970779148963      0.26921938742540
  C   4.44703126998746      4.69077961526013      0.04780726108627
  N   3.41454863712451      5.41932982595824      0.15293875667304
  N   5.07579934384235      1.14995651413033     -0.35104242746668
  C   5.65099552781663      0.07734192972391      0.34576399165991
  N   5.09149096767721     -1.04875045980884      0.47395095343941
  O   3.87374545652623     -1.15253500262214     -0.26276399733289
  H   2.34738598453452      2.72961027190405      0.20319110699415
  H   7.52924600080375      2.28833112329299     -0.41934502723150
  H   7.09066221698644      6.61377141287175      0.27000219327927
  H   3.69131829839444      6.39653938358870      0.27084230529700
  H   6.60337456492979      0.23392583275129      0.83634324698396
