21
Coordinates from ORCA-job 11450optt
  Br  1.30034479831211     -0.06200341882656      0.24992410809061
  C   3.15542178066016     -0.17126607737525      0.13085705977465
  C   3.82559191204852     -1.34678065493674      0.00577569843118
  N   3.27734396590923     -2.62857799197562     -0.09152870383509
  C   4.26608595030120     -3.46059024072183     -0.15904697912412
  C   3.97994495994491     -4.88077128658249     -0.40110880641998
  N   4.73077073882372     -5.87162706927328     -0.17242595020504
  C   5.96048842701260     -5.84166199634382      0.45846435291783
  O   6.20646040462004     -6.42619786406866      1.46166018736345
  S   7.33010471729484     -5.01386653275690     -0.43640000777499
  C   6.80168536534286     -3.37298379512870     -0.40975599004208
  C   5.59271028443150     -2.82553100463083     -0.18262972754182
  C   5.26005992273512     -1.40790060843634     -0.07020820179233
  C   5.96764061637497     -0.25878959949926     -0.00905207543984
  N   5.29233638518339      0.91331710024081      0.10388452093369
  C   3.90179822915486      1.08239351411176      0.18056470241327
  O   3.43644878858109      2.19610696823148      0.27950270980074
  H   3.00727249302541     -5.07255107745193     -0.84914977940948
  H   7.64006058019003     -2.70451644988166     -0.58274104870633
  H   7.04648775093838     -0.19263066829412     -0.04117648271007
  H   5.79894192911502      1.78642875359997      0.15159041327574
