24
Coordinates from ORCA-job 11456optt
  Br  2.33730592134658      0.81824192421921      3.24757451001109
  C   3.36559261149681      0.52024576850153      1.70278795103531
  C   3.10950211645259     -0.53317010078260      0.88106159678011
  N   2.11822984770075     -1.40933819407451      1.22995398531581
  C   1.68152743608598     -2.35668270374123      0.49688583290624
  C   0.64247652278232     -3.31036783932525      1.03438141871254
  N   0.10466479278773     -3.37739572083466      2.16898869829479
  N   0.36974207766676     -4.17146130292037     -0.02784107203215
  C   1.10514427870364     -3.80984594764159     -1.12406750333070
  C   1.92178083043267     -2.75221866209662     -0.87007567846173
  N   2.71167621784614     -2.12549645790304     -1.81164785389816
  C   3.56070260304562     -1.24335880431560     -1.50339196279453
  N   3.95197470496618     -0.70190041364601     -0.25089563125572
  C   5.22490393145749     -0.05559445154233     -0.30048550474763
  N   6.19093066994322     -0.44069167828072     -1.03163511873630
  C   5.35012403943393      1.14710574879091      0.50570775544721
  C   4.45172787466072      1.42464305653321      1.45890384976340
  H   0.47558240310952     -2.62651294144943      2.75471084548958
  H   -0.29445849420973     -4.92313036506716      0.02467948225697
  H   0.99975222782394     -4.33072429791690     -2.06367430614406
  H   4.13354300359387     -0.79190028206464     -2.30746411979189
  H   6.01585576893415     -1.33445810292120     -1.48500546427552
  H   6.21972164798070      1.75977035568755      0.31818296187399
  H   4.54699696595838      2.29924141279146      2.08736532758136
