17
Coordinates from ORCA-job 11465optt
  Br  1.02642416690844     -0.09646704156187     -0.06906743649358
  C   2.89429085084361      0.03314009095277     -0.06981333091480
  C   3.55476582664684      1.20490359015885     -0.06975917035123
  N   3.13241113596063      2.53753290260391     -0.06918568303311
  C   4.24780364261145      3.30897911888450     -0.06929880796964
  C   5.40282249819388      2.53160195157992     -0.06992052809756
  N   6.55125649762201      3.25410237776748     -0.07020022050981
  N   6.38753162032121      4.49431191247487     -0.06982578870553
  S   4.68539940145182      4.93563526130986     -0.06879751318764
  C   5.00669321869825      1.14095715379994     -0.07015870501153
  N   5.70736928013000      0.05416517405017     -0.07066503898297
  C   5.03410428986313     -1.15583908005207     -0.07089576391161
  N   5.54709442517460     -2.31665485632704     -0.07154924756116
  N   3.61448238381174     -1.10601727647335     -0.07035868912141
  H   2.17765289294050      2.84998180040565     -0.06914199465809
  H   6.55905599043830     -2.23723590397631     -0.07185815095519
  H   3.15684187838355     -2.00609717559730     -0.07050393053514
