22
Coordinates from ORCA-job 11462optt
  Br  1.83139341341472      0.15048487766868      0.85018526847060
  C   3.49242736298193      0.32984374458052     -0.00665201976643
  C   4.35985701584791      1.34634008808268      0.20719671737991
  N   5.54901151752196      1.35408375899278     -0.47732737572173
  C   6.33961301897592      2.49072050142143     -0.11472204649996
  C   5.65363037765570      3.16183790952057      0.92459027232516
  N   6.12914322517573      4.32585346875303      1.29047362476365
  N   7.45573640848510      4.19458822570535      1.52065046744856
  N   8.14650972176857      4.72368889429246      0.55677750458016
  C   7.89232905198280      4.31598662452098     -0.72639421382523
  C   7.19116735355634      3.15641396352395     -1.00133247862040
  C   4.31998916814147      2.55595928204446      1.09725659549305
  N   3.41612937761078      2.99333754864329      1.86053650288724
  C   5.91489543216225      0.37916116253070     -1.42372509498962
  O   6.95092364968611      0.46684062301626     -2.03277862607987
  N   5.01130679548943     -0.66264239312594     -1.58659582471175
  C   3.89929298394252     -0.67553441060250     -0.93623761302546
  H   9.07716876318729      5.05132825992546      0.79808574596177
  H   8.44961151917663      4.82702341913628     -1.49604092477543
  H   7.29227149713669      2.75392253028293     -1.99865049151259
  H   2.57615429760150      2.41734960120160      1.83525198260214
  H   3.22743804849862     -1.51358768011501     -1.10754797238374
