26
Coordinates from ORCA-job 11460optt
  Br  1.01430480901995      0.75490853052338      1.24801490725973
  C   2.74891513172438      0.27785864018905      0.71509306351844
  C   3.59751196520593      1.27179591463325      0.35106913275943
  N   3.40933675329293      2.63646794439395      0.29834243602927
  C   4.59249890496838      3.20848766020432     -0.14401172404015
  C   5.49235298116732      2.21051832265676     -0.36137052863130
  N   6.60271477019200      2.84048371410260     -0.76788703322153
  N   6.37119544613100      4.17662888380695     -0.79743402367994
  N   5.14795846239770      4.39712251787314     -0.41578422271832
  N   4.91141115145369      0.99780149351133     -0.06265057025138
  C   5.33567365668687     -0.30598663311707     -0.12785872701634
  C   4.52572554574571     -1.31328495889375      0.23533087296672
  C   5.25225123779889     -2.62445607148088      0.12006252775304
  C   6.51269920350503     -2.26284615227760     -0.69873521316777
  C   6.70769050537198     -0.73830655369794     -0.53953614737605
  C   3.15988876282612     -1.11814947700475      0.72859626542614
  N   2.37059701391612     -2.04269372846849      1.13823092113966
  H   2.54337115410557      3.08006484834387      0.55257590846480
  H   7.50786093272356      2.49303362130917     -1.03537643113547
  H   4.65265081944785     -3.39054491718005     -0.37482246664998
  H   5.50368180974363     -3.00806520512251      1.11371964381873
  H   6.32831842889319     -2.48416003021502     -1.74966174082506
  H   7.39169776470646     -2.82562365768287     -0.39177521731588
  H   7.04192335732440     -0.26340885350583     -1.46532642192789
  H   7.43527926812277     -0.49316705808335      0.24079105587609
  H   2.82249016352853     -2.95247879481765      1.08140373294501
