21
Coordinates from ORCA-job 11474optt
  Br  1.19051609260841      0.09937200085340      0.17734178532067
  C   3.05967469371836      0.03756464243276      0.13467697459524
  C   3.75638674281668      1.19369982323751      0.10275119931414
  N   3.33400881249720      2.51470803708125      0.07249460301164
  C   4.46494083506804      3.27511315986461     -0.20157111847663
  C   5.54299525581835      2.47599519008360     -0.20861344479499
  O   6.70897352315688      3.12443554406149      0.02511747777745
  C   6.31563669035256      4.43267057804523      0.12172353503830
  N   6.95156827492952      5.54735724740678      0.15739794617542
  C   5.93198833751779      6.48300888473890      0.14145867811131
  C   4.69367665491574      5.90910724333889      0.05570189675092
  N   4.94522490992650      4.54813932760018      0.06249622596248
  N   5.14638916371073      1.17040255290418      0.03655950257159
  C   5.79150268907378     -0.04485097169983      0.01691114388976
  N   5.18489635465163     -1.15975577679657      0.08297482192343
  C   3.76676572620855     -1.24098104949905      0.13359415793212
  O   3.21246509139851     -2.31032300997265      0.16737862321255
  H   2.39405088997793      2.72074648856334     -0.23471501175437
  H   6.15492502583020      7.53453954478569      0.20496204129318
  H   3.70267627815328      6.32185648660991      0.02820468526842
  H   6.87373795766932      0.01219405636034     -0.04384572312263
