23
Coordinates from ORCA-job 11477optt
  Br  2.29968195319802     -0.32187063915591      2.38045593510986
  C   3.11045864066702      0.12758500836019      0.72243691137957
  C   3.21789259483769      1.41867601980924      0.33044091961317
  N   2.77911406532194      2.45721079325502      1.13672469833686
  C   3.57215617859481      3.60633981008921      1.34679143243616
  C   3.59719206550857      4.69622378902489      0.53306720386969
  O   4.33962512775425      5.67373252514703      1.10961015004413
  C   4.78430991512447      5.19995668703350      2.29587352723639
  C   4.35430004756459      3.93440596819138      2.50168251617754
  C   2.90887686440685      4.90340335784634     -0.70446542962999
  C   2.76696413780460      3.92380160361143     -1.61420566553508
  N   3.47651049395329      2.75912678204629     -1.75110493834130
  C   3.73402615391048      1.73791458947030     -1.02911152262216
  C   4.57646857479705      0.72299477690456     -1.66397045765164
  C   4.57738547354414     -0.57674485401052     -1.36067083442628
  S   3.65784025271941     -1.29428870231726     -0.09662471584070
  H   2.32868288569093      2.13772821210552      1.98188256524924
  H   5.39709937463268      5.86881869182233      2.87405809342426
  H   4.55894707640920      3.31241456852443      3.35710957315181
  H   2.45857024012968      5.86806343094470     -0.89643337480203
  H   2.16213979999125      4.13354901204134     -2.49099652277215
  H   5.15102054271079      1.07132929725838     -2.51220454951165
  H   5.15373754072827     -1.29337072800241     -1.93134551489569
