26
Coordinates from ORCA-job 11482optt
  Br  1.04298147931635      0.19071592761226     -0.09619146410056
  C   2.90908253274395      0.05875856549965     -0.04975950051417
  C   3.52682034631309     -1.15716012581658     -0.05236569227014
  N   2.85709455751594     -2.34818414800815     -0.04269661594711
  C   3.59944300668015     -3.52346111067241     -0.41635920261371
  C   3.05252312722391     -4.88006533088488     -0.01528173145258
  O   4.20299697710001     -5.71599067079959     -0.02081355511057
  C   5.40735898479373     -4.93862017174622     -0.04430340753534
  C   4.92357376092782     -3.54182760162450      0.32522270431107
  N   5.69256722719740     -2.37433239180251     -0.06253209594381
  C   7.06124301055823     -2.41820405729198     -0.20967329188271
  O   7.71613121603023     -3.40890612004035     -0.01118007721726
  C   4.98971711206479     -1.14757074897727     -0.03304807855321
  N   5.66734754253409     -0.05869443920367      0.02877852376833
  N   5.01513571979731      1.10001640938659      0.02153971171259
  C   3.64830272608192      1.30479882230264     -0.00908599462298
  O   3.18382848978051      2.42469408413605      0.00115917428538
  H   1.87217760322911     -2.29624673232593     -0.26303077165741
  H   3.82001110960151     -3.53094345798749     -1.49180198017304
  H   2.32067022722193     -5.28148818400330     -0.71601314751298
  H   2.60846376471944     -4.83610565066930      0.98502067045575
  H   5.85088044193259     -4.95549968607733     -1.04223172989952
  H   6.11530724519568     -5.35641206681001      0.66390598297656
  H   4.71615321222707     -3.50508340489559      1.40094685350346
  H   7.48307256711387     -1.46366427151313     -0.53957705680902
  H   5.59411601209929      1.92547656221301      0.07337177280299
