25
Coordinates from ORCA-job 11488optt
  Br  1.09518577596666      0.07788829786159      0.48606685445277
  C   2.95806433158589      0.13025122810976      0.26435272348481
  C   3.61931173455711      1.32288767207898      0.17605013544872
  N   2.74453428207728      2.43868146199598      0.05063135054405
  C   3.15419610099723      3.55324894300479      0.45052011648673
  C   2.90604951939613      4.96124248032615     -0.09943317465000
  O   4.27850829144699      5.38176520251577     -0.35656912994488
  C   4.95717039537793      4.16117922344387     -0.21127009035530
  C   6.38946709328918      3.82430607618603     -0.05427184270786
  C   6.35314682347201      2.28779166595607      0.21704170032194
  O   7.41141442750348      1.81310783249039      0.53979459949376
  C   5.13214392038938      1.30912995307269      0.06775672791634
  C   5.65146435550752      0.05881327227815     -0.09567031416600
  N   4.94721220277381     -1.08567426781079     -0.09810454556724
  C   3.58400341702678     -1.18361497903371      0.17375282388715
  N   2.94789677268889     -2.27825389804812      0.29149546982619
  O   4.38978349996888      3.64663189156088      1.00036822776458
  H   2.46548190301716      5.64238298289266      0.62402785849813
  H   2.32999636282509      4.93280597945330     -1.02243220568953
  H   4.63084261564551      3.52956669468323     -1.05135692146594
  H   6.87022935905255      4.29453224128267      0.80081834609091
  H   6.98007141321267      3.99137080456684     -0.95368020021510
  H   6.71817180080943     -0.06814453912264     -0.19900035566072
  H   5.44787829925926     -1.95202785542039     -0.22413085138178
  H   3.55177530215313     -3.08886836432415      0.17324269758828
