21
Coordinates from ORCA-job 11491optt
  Br  1.05504249377349     -0.18174755284363      0.17729224079189
  C   2.92001432529253      0.08011875943623      0.10960045055318
  C   3.43389750428969      1.33090764197464      0.07625483889501
  N   2.68836289936188      2.47742706993788      0.08070687149919
  C   3.32165122752094      3.69821800192964      0.05419561380242
  C   2.91453427785844      4.99007680240202      0.05443991658974
  O   4.00357553193764      5.80333546341058      0.02176881972096
  C   5.10660092889021      5.03045923436879      0.00076914056011
  C   6.38030853203391      5.64759873196702     -0.03064765423712
  N   7.42319911615037      6.12486071136045     -0.05672097403089
  C   4.74712068788213      3.71262145722216      0.01907697662315
  N   5.52169280176996      2.58115971792695      0.00797942843828
  C   4.90154729574769      1.45628253068264      0.03397424874394
  C   5.71694146132635      0.18399794245906      0.02376855514361
  N   6.98153988360875      0.20281861876664     -0.01007096548730
  N   5.06408809431979     -1.05634443758589      0.05234372613315
  C   3.78802256031602     -1.07853390052961      0.09268748018364
  H   1.68264269194897      2.39806881547250      0.10900472339142
  H   1.95616673828277      5.47600691566867      0.07525079705227
  H   7.31228613252156      1.16958436069269     -0.02775809099685
  H   3.30076481516685     -2.05091688471944      0.11608385663019
