22
Coordinates from ORCA-job 11498optt
  Br  0.97389887009912     -0.19674053743207     -0.00888738668406
  C   2.84637578795497     -0.10189284949793     -0.01786419589014
  C   3.55973982630554     -1.25143930190258     -0.02163664413435
  N   3.12174493924044     -2.54393598209156     -0.02033494665097
  C   4.20455282076730     -3.41094152995417     -0.02419495504763
  C   4.30054621258836     -4.73851236956827     -0.02462542068578
  O   5.51743994063519     -5.33308174581749     -0.02849444530720
  C   6.70805955921961     -4.63570679260156     -0.03191473625701
  N   7.80756972545944     -5.24880581028012     -0.03145699540426
  C   6.61578834120962     -3.16944757505777     -0.03582566861080
  Br  8.24950018805990     -2.26063770038507     -0.04820271857797
  C   5.40020014827077     -2.58888050946946     -0.02942942746535
  N   4.94887671205523     -1.26992968277872     -0.02720063602535
  C   5.64032712531646     -0.06960143626588     -0.02729670229300
  C   4.98080657163718      1.09545746559368     -0.02406080231210
  C   3.51268229381021      1.19339137590790     -0.02016825376464
  O   2.92750648398028      2.25899119496561     -0.01867003324162
  H   2.14467877906367     -2.78242271183845     -0.01706643281871
  H   3.48296355569102     -5.44173236155201     -0.02213207246370
  H   7.66767188512802     -6.25625773264360     -0.02772589526103
  H   6.71362695925917     -0.14792009546891     -0.02976457869867
  H   5.53144327424844      2.02504668813846     -0.02404705240566
