26
Coordinates from ORCA-job 11509optt
  Br  1.48937401264901      0.25255597161586      1.71197285407050
  C   3.12769864560050      0.01651500913647      0.81398891995106
  C   3.47753549381609     -1.18819485478136      0.33352641956358
  N   2.79536443156201     -2.39463457579744      0.42968839414560
  C   3.28522067206842     -3.33897799314032     -0.56429825127008
  C   2.47585565649251     -3.29258983714276     -1.85396644867395
  O   2.64277851874506     -4.43960940740907     -2.67846412639913
  C   3.81897811191974     -4.97963814340056     -3.05913735072667
  O   3.80018287310548     -5.97123310258349     -3.72461739725583
  C   5.17256693865353     -4.37565503547303     -2.65793445572833
  N   5.26908420454932     -3.03974199153489     -2.12738229106816
  C   4.74658751886853     -2.86050426582801     -0.79770964868767
  C   4.70081706925408     -1.40317888707241     -0.39670897088200
  C   5.62809580638679     -0.47746147021957     -0.68427289387858
  C   5.55474241217763      0.91506424456777     -0.25732600724831
  O   6.39846993328492      1.74625184163938     -0.47263677135335
  S   4.10282870827024      1.44013612316533      0.66243784048056
  H   1.80968900342027     -2.36916196266163      0.64631507093973
  H   3.25162890298619     -4.35696860064207     -0.17065879166658
  H   1.41386317097078     -3.29551049196626     -1.61073781473225
  H   2.68513035518618     -2.37771738291170     -2.41648623115352
  H   5.78262148428833     -4.45900615002832     -3.55668632835578
  H   5.60262671962979     -5.07535049584997     -1.93560876375227
  H   4.93607174347929     -2.33321058964409     -2.77022756220797
  H   5.39842403093046     -3.39251339789776     -0.09607648979878
  H   6.51276358170481     -0.73766455414009     -1.25399290431181
