21
Coordinates from ORCA-job 11504optt
  Br  1.02583882138945     -0.10899172523325     -0.01302829871902
  C   2.89966636141324     -0.04498036084303      0.02195383526000
  C   3.54906890114121      1.15892523821921      0.03761259683754
  N   3.08477299084494      2.43081035668530      0.04866071140755
  C   4.16277642432378      3.29930622974109      0.06294046778680
  C   5.27621080908420      2.54388810179534      0.05625648721678
  O   6.54870634156879      2.96771407482683      0.03600559972527
  C   6.73270445933081      4.31143666016741     -0.00315107497811
  N   5.86065157061354      5.21587493930170      0.01016212693975
  S   4.22726548834160      5.03237135822191      0.11084786065088
  O   3.80882572078825      5.50045004370258      1.38648759260194
  O   3.63677084296763      5.56538101480365     -1.06649387889272
  N   4.92532305330475      1.20810209589455      0.04706510333308
  C   5.74819940705647      0.00298358476393      0.07069806660602
  N   7.01153259922743      0.02979451383876      0.10378428129261
  N   5.03125114731378     -1.16501630101088      0.05708887323925
  C   3.73235992146519     -1.17994334744343      0.03366531377643
  H   2.10700127306053      2.67601161721029      0.02732335601933
  H   7.79154650571200      4.53778256553198     -0.05339087652244
  H   7.40308771800098      0.96187315313206      0.11372102720440
  H   3.25743964305125     -2.15777381330607      0.02579082921466
