23
Coordinates from ORCA-job 11507optt
  Br  1.30060402903594      0.53139009349448     -1.34166051094149
  C   3.06590155251059      0.41498051787606     -0.71429478245987
  C   3.75392645728403     -0.72949588326801     -0.81562939955153
  N   3.30098748812999     -1.95370180318357     -1.34561168413617
  C   4.28861944057674     -2.97210515691595     -1.03576465841669
  C   3.95529113097398     -3.69415587779203      0.28495353625110
  O   5.17328042228655     -3.81404803617563      1.02281812618896
  C   6.11766011822027     -2.97074879059810      0.58739164165630
  O   7.16801562004523     -2.80911089619765      1.11289765500652
  C   5.60654268406666     -2.24664448816368     -0.66926100914705
  C   6.61302940510650     -2.23559953289122     -1.72226851580524
  N   7.37892264289410     -2.23137140336231     -2.57384309672792
  C   5.11749910828535     -0.83929465647782     -0.34247582029168
  C   5.83409064170083      0.11601149397316      0.25688060433600
  C   5.32717770632603      1.46026676438020      0.52446128550507
  N   5.93453255438640      2.40146105037448      1.11592000437691
  S   3.69272257887975      1.88928047343385     -0.04687278524921
  H   2.99251690742638     -1.91338760289825     -2.30738289610826
  H   4.40968525224829     -3.67204394642194     -1.85826872790085
  H   3.55403771445066     -4.69313529413093      0.13622041254525
  H   3.25003213936275     -3.09671487181548      0.86323288119363
  H   6.85411390637056     -0.08659174754237      0.56872678854361
  H   6.87081049943235      2.11875959430274      1.40083095113260
