21
Coordinates from ORCA-job 11500optt
  Br  1.08091459690640     -0.01233550006862     -0.10115074735103
  C   2.94426154707821      0.07994104186518     -0.09831867038551
  C   3.60696921514695      1.24594083342317     -0.09612837310635
  N   3.17559832807769      2.54646721223141     -0.09495114898778
  C   4.30226392675644      3.36277721346849     -0.09359366356362
  C   5.42677299395171      2.60253081558117     -0.09362864545354
  O   6.53604894089935      3.39119251350673     -0.09203976934568
  C   6.06973290972922      4.65414430656699     -0.09098539160885
  N   7.02334156294452      5.64047707977018     -0.08927405408601
  C   8.39043149625969      5.43660276557521     -0.08877856488723
  O   9.17433426102676      6.34371798578924     -0.08727501489584
  C   4.69966957618102      4.72714251357148     -0.09178923361643
  C   5.07985421079563      1.21598714830386     -0.09492735297737
  N   5.78816282626396      0.14733147407769     -0.09524347805358
  O   5.08603465301716     -1.02954297885804     -0.09673550012301
  C   3.71207444372295     -1.15932154766494     -0.09849316739765
  O   3.25606148399854     -2.26338846877699     -0.09982651156821
  H   2.20896335158299      2.82299613461357     -0.09633832990041
  H   6.71428583303107      6.60199757335026     -0.08844846916082
  H   8.67226518796462      4.37762157437446     -0.08984842648895
  H   4.10695865466507      5.62472030929949     -0.09122548704214
