21
Coordinates from ORCA-job 11502optt
  Br  3.21586111759916      0.85678795657141      3.61647958720236
  C   3.77862837748030      0.39125937093011      1.86646523378761
  C   2.88474919865360      0.45619753480867      0.84940714605738
  N   1.55773116243260      0.86728965929037      1.00331246032067
  C   1.05011363091435      1.81278201026216      0.12723974799481
  C   0.55112039053660      1.71793912082693     -1.12301023780307
  O   0.35669435067104      0.60465896599989     -1.85340059268407
  C   1.09857507736256     -0.49959909084286     -1.46051037643373
  N   0.58561466086469     -1.62947275202607     -1.30252082519527
  N   2.47555454660404     -0.30533099909022     -1.46294368961290
  C   3.23887189408386      0.00496438107998     -0.50618274955592
  S   4.96239214771688     -0.08403834359243     -0.88948487036456
  C   5.67095682179029     -0.12826030611276      0.68281680534103
  N   5.09413939104161      0.03451846938874      1.80719915890850
  N   0.24184039827993      2.95827725696597     -1.61041582198495
  C   0.56414998602843      3.75164083170112     -0.64780735889657
  O   1.08452296969300      3.15250345651125      0.43135148803075
  H   1.23128176017670      0.92323653158753      1.95815267394836
  H   -0.42389965971796     -1.57849955080724     -1.41821369419564
  H   6.73857962475732     -0.32734412098919      0.66485077761589
  H   0.45152215303100      4.82248961753662     -0.60978486248068
