24
Coordinates from ORCA-job 11508optt
  Br  1.11592768009813     -0.66741675216278      0.69166727373043
  C   2.88220819541467     -0.30525062689081      0.18313374157508
  C   3.43740517934871      0.91650574531677      0.27796071596736
  N   2.93086021663535      2.12285992951000      0.77610781598051
  C   3.80665565533810      3.19878279671458      0.32994588879270
  C   3.29885481975725      3.96684056867704     -0.87977765604826
  O   4.00559779906134      4.67373125293930     -1.53532365628411
  C   5.16637215177533      2.51305315222559      0.10241570576478
  O   5.85613203452775      2.60351818297985      1.34673774713196
  C   5.51706204947444      3.81749962096912      1.97530087760990
  C   4.11027585220200      4.15208536229848      1.50750803752887
  O   3.36959273140120      4.97810622032924      1.94215758738937
  C   4.79156965086271      1.07773377698209     -0.15253577880464
  C   5.52240272246050      0.06743550503778     -0.65705216560363
  C   4.94300664321400     -1.26626890109252     -0.76485906537327
  O   5.50560561986936     -2.25390563437131     -1.19181478844076
  N   3.62130066512394     -1.34392034329938     -0.32038487848135
  H   1.93390752778651      2.28307449287465      0.73024002484409
  H   2.22418214374225      3.83659622021239     -1.11108545449201
  H   5.73592139470296      2.99061394764204     -0.69810793734743
  H   6.17917210987735      4.63758577634190      1.66787004330089
  H   5.56775808892629      3.69914190347893      3.05591577032151
  H   6.54396701495075      0.18588540394944     -0.98900846213623
  H   3.20126205344874     -2.26028760066251     -0.39201138692579
