23
Coordinates from ORCA-job 11513optt
  Br  1.14919401837939     -0.18219820798750      0.10147566051332
  C   3.01789931449259     -0.00593382150937      0.15373807692388
  C   3.62758497485485      1.19138656095866      0.23246158731720
  N   2.98918867998539      2.43506549045566      0.37069174089618
  C   3.68511985448309      3.55269901494940     -0.22266378091940
  C   3.25017638159147      4.85681498507025      0.41998423192004
  O   4.00850380827487      5.92121663951581     -0.14172015989671
  C   5.33713304342391      5.80076900292943     -0.21568946970572
  O   6.05214606024927      6.69085729824600     -0.51000477115049
  O   5.86326108284496      4.56813349969205      0.08472211512719
  C   5.15311943050894      3.41075807762995      0.06976981032096
  N   5.78901909955184      2.35320883335843      0.31268488691964
  C   5.07730806431626      1.14408912833052      0.26097173328160
  N   5.76963027960186      0.06259012021003      0.23332545784448
  C   5.13837220009146     -1.17361805082181      0.17276449077686
  N   5.71512818415575     -2.30317683762922      0.15175807400847
  N   3.73795630675535     -1.15546041991519      0.12701116072298
  H   2.00788000930236      2.40074666163826      0.12631807673850
  H   3.55845160884577      3.63443940975091     -1.31339693087433
  H   3.39919359257277      4.81037649801871      1.50073661549078
  H   2.20841023653479      5.08689293066336      0.20907909309880
  H   6.72067458662417     -2.16667127383186      0.18596933113003
  H   3.28064918255883     -2.05298553972250      0.07501296951575
