19
Coordinates from ORCA-job 11511optt
  Br  2.64005388294051     -2.47405460417098     -0.18971290013917
  C   3.65266437806726     -0.91501000650863     -0.03609366683559
  C   3.05862793791549      0.31338313243151      0.05930663067838
  N   1.68663108040999      0.37003377980284      0.11458323980395
  C   0.99007814120874      1.42458196402851      0.13770056549850
  C   -0.50732929992921      1.42987580703708      0.21367668584923
  O   -1.24260837614365      0.50059064426919      0.31878369892245
  C   -0.87990765243416      2.92602482777569      0.13123980510086
  O   -1.98358648655098      3.37236717409123      0.13899585951672
  N   0.31150536868477      3.67373917456470      0.04624036597282
  C   1.33150658114357      2.87487352663816      0.06065233822679
  N   2.57599450986664      3.36209838033851     -0.00300134153999
  N   3.77435258083473      2.73307282883108      0.08915600519119
  C   3.94853354946097      1.48305110462691      0.11267346738398
  O   5.30102385683308      1.17595725883900      0.20971312831105
  C   5.72560837700942     -0.07484675303232      0.10940479368421
  N   5.00767903130714     -1.11616547643768     -0.03048357714679
  H   2.65667433226918      4.36809087356582     -0.03691558922899
  H   6.80549820710645     -0.13666363669063      0.16508049075038
