25
Coordinates from ORCA-job 11515optt
  Br  1.33995931580957     -1.30565703844009      0.48005188003952
  C   2.91578984086856     -0.31481447592105      0.19138156036050
  C   2.99605431711246      0.98467459386294      0.55064270502082
  N   1.92345658227905      1.62080514311149      1.23166945530261
  C   0.94811048631854      2.26269868841713      0.43405552645427
  C   -0.25266328542838      1.82205902303816     -0.00589651532055
  O   -0.84485026970969      2.77508705788148     -0.72593213574558
  N   -0.03933892676002      3.88816294902919     -0.76806667101208
  C   1.02487875016094      3.58920857337976     -0.08350999828435
  C   2.14883881321638      4.55291967756773      0.09522492636514
  C   3.50802702825720      3.99576360811192     -0.33348033138971
  N   4.17719779367236      3.10901644613246      0.64963992632286
  C   4.22664299541793      1.73528346020699      0.33651880740956
  C   5.39429877137567      1.18502696416186     -0.08130139424041
  C   5.61223288693666     -0.19124011119786     -0.45310688510609
  O   6.66426812147507     -0.66462995084982     -0.80061315485662
  S   4.17197498884564     -1.26822797406674     -0.49929831031146
  H   2.31287408505912      2.28366929618663      1.89316028844076
  H   -0.78647104534636      0.89440367029574      0.10706694330498
  H   2.21239925170098      4.86612501289410      1.14040135256996
  H   1.92301075226035      5.43807138384758     -0.50036564806388
  H   4.17924816742865      4.83968360541137     -0.49136731339884
  H   3.41307786290025      3.48286596936852     -1.29468110178745
  H   5.11689183439016      3.44209334781242      0.81199958480320
  H   6.27209088175888      1.81095107975807     -0.19519349687715
