21
Coordinates from ORCA-job 11518optt
  Br  1.63259328810909     -1.05814775096055     -0.56715300980672
  C   3.35012336729779     -0.59503203931963      0.01716018565298
  C   4.27860381155837     -1.60522671480943      0.36274995292276
  N   4.45889478326864     -2.88603111586179     -0.01457128636539
  C   5.75823660710233     -3.15063378599489      0.30732549367874
  C   6.97434723485091     -3.80264071190228     -0.36482944654294
  O   7.09724425695558     -4.80562521900092     -0.98883522310953
  N   8.03680983703548     -2.84823827775232     -0.15633475887728
  C   7.52927458108151     -1.68193285232593      0.42052426599454
  C   6.30515650180249     -2.09511621651677      0.96732936578930
  N   5.41696410447998     -1.08895692449148      0.98092669432261
  C   6.06803396830752      0.06075282164095      0.54626252345666
  C   7.45496956521087     -0.30486335615686      0.26916375948910
  C   5.18790603128475      1.04752454647165      0.13137370677016
  C   5.67503836345674      2.36355204498579     -0.31681564526709
  O   4.96184527247900      3.24240072542886     -0.72154539381288
  C   3.81657506444388      0.70151445454334     -0.03633852550873
  H   8.91445092070125     -2.96148777239958     -0.63583169387063
  H   8.17683249793926      0.36027461188499     -0.17470781469846
  H   6.76936553991501      2.50676096289767     -0.24777182071008
  H   3.15473440271949      1.49015256963919     -0.37208132950710
