21
Coordinates from ORCA-job 11525optt
  Br  1.29223100094746      0.88079118840589     -0.13303185202788
  C   3.11102169423786      0.40540390007141     -0.04122063788409
  C   4.03406989662386      1.39738402596611      0.01798257820365
  N   3.78889977626924      2.74962531965059      0.01311061459452
  C   4.99504449809809      3.42549334142987      0.07275569558018
  C   6.04100894106129      2.53884660620878      0.12277922409786
  S   7.60147609379210      3.28264305820826      0.20044801536717
  C   6.84002750027117      4.83143941589257      0.16599077501580
  C   5.47143850064063      4.75418493696717      0.09875424567279
  O   4.92760192067227      5.97099594118785      0.07420729033632
  N   5.95946075206922      6.89459158995361      0.12755940017411
  C   7.07841597441036      6.22959221605129      0.18152550999339
  C   5.48646771652847      1.20503428595000      0.09360493629905
  C   6.04797393794617     -0.01667821801063      0.12754736334279
  S   5.14488324227370     -1.47126716633838      0.07518528550437
  C   3.42068707802971     -1.01041192421307     -0.05129422205045
  N   2.52936223017047     -1.91114105160312     -0.13845406196388
  H   2.86785126810942      3.15091854271941     -0.04016705430512
  H   8.00528798748844      6.77850015670309      0.22790626901113
  H   7.11877811859991     -0.16081952960509      0.19305138368944
  H   2.90701187176010     -2.85512663559563     -0.13524075865114
