22
Coordinates from ORCA-job 11533optt
  Br  1.41484196707579      0.23900828734373     -0.12171535082603
  C   3.25363381001260     -0.16406284194633     -0.03672723377116
  C   3.67082280195581     -1.44812131040517     -0.03449862498466
  N   2.96242994935327     -2.61700252210022     -0.08844835284848
  C   3.81258997031887     -3.71427087482298     -0.07007108381318
  C   3.36542707894381     -4.97827993477852     -0.11070814134709
  S   4.15585255455623     -6.51182126095938     -0.09805364893212
  C   5.91627331257771     -6.31951741323218     -0.02513964755918
  O   6.54560456926449     -7.34180088454781     -0.01408077812918
  C   6.68870491410028     -5.02032360397564      0.02283772716976
  N   6.38946469360745     -3.79484568817292      0.03518769779917
  C   5.17397487393983     -3.15831172212401      0.00195080474791
  C   5.07308554972408     -1.79517527870203      0.02690001841281
  C   6.11016310741029     -0.72227741433307      0.10249361124043
  O   7.29841535668791     -0.95354066758966      0.17034281963538
  C   5.56097635643567      0.63864237325683      0.09247308625428
  C   4.23542179718229      0.88367761022631      0.02892831735819
  H   1.95813036358891     -2.66181459342750     -0.13935870707546
  H   2.29269460523562     -5.13168055261740     -0.16075510617274
  H   7.75065910879017     -5.26849745452891      0.05417298126180
  H   6.27966575323149      1.44430109535929      0.14351090299171
  H   3.87416750600738      1.90471465207761      0.02575870858784
