23
Coordinates from ORCA-job 11534optt
  Br  1.15203143903824     -0.10297878003369     -0.36788060657661
  C   3.01416846726515      0.07451566869585     -0.22564349752040
  C   3.67938421871320      1.17934563937974     -0.63508802945041
  N   3.11663368272625      2.33059732999096     -1.21990166659202
  C   3.17693012309984      3.53195112571591     -0.48267323495156
  C   2.11759146783647      4.32944262958385     -0.15636566760874
  S   2.68610279306135      5.69097436128805      0.67823210919192
  N   4.25579625542602      5.24322365829473      0.63524792013337
  C   4.39616864283143      4.11021462305468     -0.00694755953469
  C   5.79223279640644      3.56922615025778     -0.19945724177770
  C   5.90148518521300      2.29414961433359     -1.00447997797801
  O   6.59856992825550      2.18194131808405     -1.97052160619953
  C   5.10742409905104      1.10265773816727     -0.48973497163226
  N   5.76388846301440      0.13581428540802      0.04402112665753
  C   5.07229835534301     -0.98389526362857      0.50372204836872
  N   5.57684600948263     -1.99003029266777      1.08200028535412
  N   3.68398136924462     -0.98459213797817      0.27841828306901
  H   2.21790735458038      2.16946670580584     -1.65038163314001
  H   1.07273664549441      4.15791867292575     -0.36266589405550
  H   6.21867368367095      3.35674982997035      0.78713232955269
  H   6.41546313630064      4.32527493116584     -0.67573744567319
  H   6.58212338828812     -1.86858813035212      1.15783205029796
  H   3.19156249565685     -1.81437967746196      0.57587288006529
