20
Coordinates from ORCA-job 11535optt
  Br  2.27478779808618     -1.86925801241111      1.52554039867536
  C   3.50780363120268     -0.80183338327285      0.59296578865933
  C   3.24623754711500      0.50090757421730      0.30736988255442
  N   2.06937285264229      1.08854401825687      0.64505999767261
  C   1.50599477348503      2.25615820559263      0.13435773785318
  C   0.16209781684241      2.42338443507102     -0.05008440192056
  S   -0.11454783536129      3.99442887031076     -0.61621571964231
  N   1.44061507149819      4.44539993691240     -0.61060199753534
  C   2.20822384161528      3.45801215261338     -0.20285560389064
  N   3.56614881836881      3.70326699826813     -0.09400524290168
  C   4.45593822140831      2.80425809003669     -0.08233218580012
  C   4.37418738552659      1.31916195614135     -0.24308273193066
  N   5.42372083850612      0.81393007008127     -0.75576692823467
  C   5.52303063715091     -0.58886452198401     -0.87630293668402
  O   6.15338643943869     -1.10517310155231     -1.74461241943432
  C   4.74593170737007     -1.43269635669217      0.15343043848519
  O   5.11114684821219     -2.53586882188113      0.44969902422978
  H   1.41106277438318      0.45442293534057      1.08042491114139
  H   -0.62279303063316      1.70021000093773      0.10760462240715
  H   5.49365386314244      3.12660895401345     -0.02059263370409
