23
Coordinates from ORCA-job 11532optt
  Br  1.04737573894451      0.19658179453837     -0.03467526623705
  C   2.91303858670601      0.11100990364114      0.05650536337214
  C   3.54698166086838     -1.08635547808733      0.05202449167372
  N   2.93687773667994     -2.30237396795052     -0.00386695750439
  C   3.60246509374185     -3.53278451418236     -0.02696974641445
  C   2.91275985976651     -4.68550203913188     -0.08502295951682
  S   3.57481051734305     -6.26855268052967     -0.12935593438622
  C   5.34844895002507     -6.00045045757449     -0.08546723291315
  O   6.05608259521225     -6.97888978551677     -0.11279508527486
  C   5.81483709042432     -4.64335228664861     -0.01682749366609
  C   5.05193500641396     -3.51657923649877      0.01304600846348
  N   5.65339051953440     -2.28832129608306      0.08503513951210
  C   4.99414933978761     -1.07087599521545      0.10779770333890
  N   5.68886315849332     -0.00020342378733      0.17033491729927
  N   5.02490931744854      1.16771902463788      0.18637995175784
  C   3.65199766526150      1.36364799961084      0.13553040228469
  N   3.06926999377703      2.49753175271167      0.15446763685452
  H   1.92750998978638     -2.30473580295891     -0.03997550737550
  H   1.82956085579285     -4.66524101196736     -0.11094108736135
  H   6.89427506446461     -4.55023587756567      0.01373338209389
  H   6.66125728507545     -2.24188068368021      0.11508902641276
  H   5.62242911437577      1.97545779326957      0.24562823307138
  H   3.72777486007666      3.27038626896894      0.21232501451519
