19
Coordinates from ORCA-job 11538optt
  Br  1.12995944607782      0.12952444254182     -0.07935421679948
  C   2.99109884004795      0.12318113217350     -0.06188013409489
  C   3.73204747343386      1.24533986760037     -0.05635894428117
  N   3.37867599057655      2.57430744493342     -0.05663157788766
  C   4.54825843066022      3.32464584892862     -0.05080090666161
  C   5.61947335609767      2.47483627211732     -0.04639765006321
  S   7.01005453178873      3.41082129899306     -0.03940554052169
  N   6.10802909522684      4.82836889592575     -0.04232007440407
  N   4.83649855594240      4.63178358516013     -0.04828938615748
  N   5.13493642795520      1.17974360654744     -0.04941191021512
  C   5.91111673884166      0.01137661958513     -0.04897625407374
  O   7.11018786163475      0.07769526431582     -0.04572586262093
  C   5.06783904806386     -1.18088894115943     -0.05122048145087
  N   5.42993040800913     -2.44093467290858     -0.04644018948716
  N   4.30895970131741     -3.18182491463128     -0.04901687123803
  C   3.27426619790520     -2.37234770674592     -0.05538328546120
  N   3.69153941604194     -1.08354344159354     -0.05703866353480
  H   2.43170003190568      2.91244467563205     -0.06109029955160
  H   2.23742844847307     -2.66052927741567     -0.05825775149529
