23
Coordinates from ORCA-job 11540optt
  Br  1.61989122472611     -0.18290055382930      1.61701280738760
  C   2.98351312966247     -0.19069420924284      0.33330038729193
  C   3.28534804044099     -1.29910658177222     -0.41293997274201
  N   3.11488017795172     -2.66423233906587     -0.06888041725859
  C   4.13601090123195     -3.23226049535852     -0.63431900026433
  N   5.08124637255019     -4.14387625207635     -0.16705036402520
  C   6.34267163532664     -3.46118901492055     -0.37336557259809
  C   6.10801486745358     -2.54571557985003     -1.31112191776741
  N   6.64328581296478     -1.23933802316798     -1.13433192182931
  C   7.61308567826896     -1.44265303459682     -0.02126584303026
  C   7.29856530577206     -2.85698662500606      0.62267547179898
  C   5.44162753549664     -0.48179652137922     -0.95773187445980
  N   5.23766151813814      0.61000646863373     -0.20175370206649
  C   3.94612614367353      0.90575507946222      0.38339517885966
  O   3.83365069183199      1.95465936891876      0.96946341507117
  C   4.35031509099476     -1.19031136231862     -1.36208720704337
  N   4.75590216691643     -2.51733229121995     -1.66890779014374
  H   4.89805393533785     -4.63385508510753      0.69452810825824
  H   7.53708093410483     -0.63148490852005      0.70159805393780
  H   8.61443342868966     -1.44000524928185     -0.44311070063225
  H   6.79104207343637     -2.75835465722392      1.58667363787597
  H   8.22787324807804     -3.39921269840018      0.78927296669841
  H   5.96072008695223      1.27388456532319      0.03594625668109
