23
Coordinates from ORCA-job 11549optt
  Br  1.77114295368883     -0.84430400431262      0.35453981645499
  C   0.58828926174466      0.31075858241532      1.26701944869798
  C   1.05053536778795      1.52977803023806      1.72417345330862
  N   2.34821028765006      1.94060336456167      1.51459610041836
  C   2.46496288770667      3.20712874163283      1.43499609915563
  N   3.49537370274042      4.07783276105719      1.44481916029347
  C   2.62652879966414      5.20628163753970      1.84789840217417
  C   1.41738304571934      4.27043541736137      1.57983104766101
  C   0.50336505787800      3.78350132626707      2.68490833228986
  N   0.15103270154699      2.38675776172448      2.34719381253060
  S   -1.17235650182424      1.75083306131871      3.15616194647574
  O   -0.71661851878032      1.04230862594516      4.30497948683763
  O   -2.11294310182033      2.81335891571495      3.30656965921162
  C   -1.61822360420285      0.59380515215493      1.90855053170269
  N   -0.70529188158483     -0.02212451047498      1.24498285107650
  C   -3.00825917175364      0.30737618255311      1.75265103419281
  N   -4.13361466578282      0.11085563390443      1.64412848834371
  H   4.46020548240607      3.89002432208860      1.67731808694939
  H   2.70972883939245      6.08325118618283      1.21147554983216
  H   2.74167643666912      5.47749946042160      2.89769993376537
  H   0.87486585339427      4.49400330515406      0.66347627869411
  H   -0.42556339495589      4.34294003552792      2.76078823311671
  H   1.01457016271594      3.80709501102357      3.65224224681685
