28
Coordinates from ORCA-job 11559optt
  Br  2.75375271484628     -1.48095151487667     -2.81548962182322
  C   3.60205936196905     -0.52828063498751     -1.43431323032782
  C   3.55900357024386      0.80445708462509     -1.33170541459042
  N   2.67693194451236      1.67051325520914     -2.05690483288859
  C   1.68519728776081      2.05814778967474     -1.10778654292172
  N   1.69100587012902      3.19637076821920     -0.55537167679050
  C   0.75323676085875      3.16288595165725      0.56941577859307
  C   -0.16965381065132      1.94852907977041      0.32560254848896
  C   0.65433615966056      1.06790780279294     -0.62252011005381
  C   1.59066780157332      3.02872307087693      1.84611244377923
  O   2.12725306512807      1.71625963773739      1.93285429695359
  C   3.49613271259394      1.52664593284744      2.24020812736000
  C   4.05130146215846      0.71945187162280      1.08650551964955
  N   4.13037005331863     -0.54920907914741      1.18311983181915
  S   4.27872499125079     -1.52183146327839     -0.17200519914933
  C   4.27737246695027      1.43305967403033     -0.20101545802530
  N   4.92656824778567      2.50574438088303     -0.36013413838280
  H   3.19533437239569      2.51298632875572     -2.30319244157056
  H   0.20320803505990      4.10335180602009      0.63438298325705
  H   -1.08584595060138      2.27864463505030     -0.16274755116934
  H   -0.43844996900653      1.43838504729349      1.24891237359510
  H   0.08693093818811      0.66183011466531     -1.46004692078123
  H   1.13360537476099      0.23348291912701     -0.10715767905514
  H   2.39214702053016      3.77236380699470      1.82235558915809
  H   0.96182959229003      3.20960031500612      2.72334728327426
  H   3.59238908682239      0.95625838036715      3.16443130733208
  H   4.00813865573968      2.48629111243588      2.34694530478391
  H   5.29945218373242      2.86238192662751      0.52019742948573
