22
Coordinates from ORCA-job 11557optt
  Br  1.11350891700508     -0.20558745010000     -0.17549933046062
  C   2.97511916349832     -0.05474926219805     -0.03604872535963
  C   3.56810467725251      1.18438400429386      0.00746683633878
  N   2.85811224721819      2.34534040562701     -0.03781150402237
  C   3.44416230167579      3.57425465399650     -0.00566343554178
  N   2.85978909324281      4.72365490357582     -0.04715688704007
  C   3.92365205600123      5.63992835697660      0.01838871251487
  C   5.15438458033416      5.06653840258722      0.09975522277699
  C   4.89224980709932      3.65663120464686      0.08729202632166
  C   5.61427939615956      2.51538251694022      0.14069062822936
  C   7.03112389859065      2.50084854120889      0.23712545908922
  C   8.22226203027752      2.58859682061739      0.31993566071323
  N   4.94603717549456      1.28496529677740      0.10197366714005
  N   5.74272248040992      0.19373142418913      0.15934547991646
  C   5.20061734353913     -0.96471416850594      0.12246102367781
  C   3.75750294403509     -1.25301589911337      0.01768493706718
  O   3.33592067669885     -2.39380808893409     -0.01668532191960
  H   1.84971553503084      2.27093409068802     -0.10353004905554
  H   3.69682097414048      6.69518767704156      0.00008406471717
  H   6.11482579916686      5.54794674587274      0.16063530317580
  H   9.28268959496444      2.65024367593880      0.39206128747530
  H   5.87639930816463     -1.81069385212661      0.17049494424571
