22
Coordinates from ORCA-job 11552optt
  Br  1.65963549472923      1.24367933239708      0.86652941372493
  C   3.24303261599764      0.61558243538802      0.07640361475550
  C   4.17958629471557      1.53061474038881     -0.43004488788906
  N   4.45273370553251      2.83005101358327     -0.18336903587236
  C   5.73642216328053      2.98121495844739     -0.60765008422077
  N   6.75537214492977      3.75909382707255     -0.07376689865519
  C   7.99764493632239      3.19667456178338      0.21233159848820
  C   8.34965226883440      1.94385927299811     -0.23195543641330
  N   9.07621775950122      0.93487699201425      0.43918231726839
  C   8.44063545990811     -0.18780749273821      0.20292080555441
  C   7.27480975753723     -0.04271573586499     -0.68593205054572
  C   5.83290785414349     -0.30245142733941     -0.68868094650810
  C   4.92449817761210     -1.18307863994497     -0.13523820232264
  C   3.62760652724870     -0.71567606119396      0.16954122366632
  N   5.22796969366697      0.90690638323748     -1.09641482678034
  C   6.17051488053418      1.86472257703412     -1.27868746173974
  C   7.39306816474446      1.29492164249085     -1.03752017988629
  H   6.50282877426921      4.59133064668168      0.43795528261200
  H   8.58538195725797      3.75449382050209      0.92878152563082
  H   8.77577531153883     -1.09862626454394      0.68103058045645
  H   5.22421733833965     -2.17065897416332      0.18136605807417
  H   2.93048871935580     -1.40600760823027      0.62621759060232
