27
Coordinates from ORCA-job 11553optt
  Br  7.89139344195487     -6.97154306401018     -1.66069923151555
  C   6.36659644891231     -6.77923379952143     -0.59785571105280
  C   5.82393850123893     -5.57915522322828     -0.34411819648003
  N   6.20414201171192     -4.29432790131963     -0.72763374433970
  C   5.38869294400865     -3.50658671657846     -0.12768327184908
  N   5.08312989263060     -2.20513940771975     -0.30058925439235
  C   3.66572161118305     -1.99215132767913      0.05283097641242
  C   3.11190133426177     -3.42301915111507      0.26828333933054
  C   4.36586878344896     -4.15215455708199      0.77699663440823
  C   4.54024679389451     -4.02544369311722      2.29057152022456
  C   3.55046492999237     -4.98694388857230      2.94962674206961
  N   3.58002159353567     -6.30662560500526      2.31991164760371
  C   4.38085715223010     -6.58954783433818      1.25020222548905
  N   4.84340901515926     -7.77253596940699      1.04336014450661
  C   5.73953775373897     -7.99260431437183     -0.00866137895142
  O   6.04411408065641     -9.10466909503686     -0.36200893404179
  N   4.64354488732560     -5.52893989704949      0.42808740579785
  H   5.50430337910706     -1.69691212484311     -1.06213222944086
  H   3.14978368008275     -1.47143610031365     -0.75162616518118
  H   3.58363030166969     -1.38662720652977      0.95692207110788
  H   2.79994915048567     -3.85201307113619     -0.68442051165183
  H   2.27194923103088     -3.44629673956758      0.96006317945390
  H   4.34779898278612     -3.00886326376258      2.63404455394163
  H   5.56557810866007     -4.29197634626223      2.55456500432669
  H   2.54003858808688     -4.57463742490425      2.89327503368037
  H   3.79830272373045     -5.09213399696591      4.00639859469295
  H   3.43708467847641     -7.11148228056260      2.91028955585059
