21
Coordinates from ORCA-job 11555optt
  Br  1.12698225277457      0.73252913607437      0.02122104095745
  C   3.00090569167786      0.57450405145945     -0.10139855800589
  C   3.82593117410010      1.67192208213426     -0.23822325311690
  N   5.18677819091443      1.48584646378958     -0.25896582965773
  C   5.74874795622253      0.24897855624574     -0.17378558635098
  N   7.02279145345139     -0.03108694470486     -0.14662699979531
  C   7.04043821177537     -1.40194132981895     -0.00326376798148
  C   5.79719337595171     -1.99106813666369      0.06422615905499
  C   4.88220652792206     -0.91582201074991     -0.03618793185754
  C   3.52789660330135     -0.72849432198252      0.01057266991992
  C   6.06160353884626      2.63611745371569     -0.30153271039105
  O   6.85369921891430      2.82800123108477     -1.14988458761827
  N   5.94616871156866      3.44707038330203      0.87240463531228
  N   4.97797431405079      4.18650055440728      1.02668145060458
  N   3.97323455847468      4.15284232297836      0.09676705392187
  C   3.30355831840353      3.05442023742587     -0.47249261469395
  O   2.29984209351207      3.27177579526788     -1.08928791087078
  H   7.99449611114607     -1.90650567777926      0.04860408732769
  H   5.57148510314011     -3.03747185878324      0.17753521322582
  H   2.84093322051866     -1.55478342874351      0.13882026960452
  H   3.37313337333343      4.96566544134066      0.15881717041077
