21
Coordinates from ORCA-job 11562optt
  Br  1.00382174420292     -0.01716298964036      0.46773787485416
  C   2.80221246253752      0.21191858182447      0.02828330642712
  C   3.37804547287280      1.40220469980288     -0.22917428664359
  N   3.01953185439440      2.76772550372645     -0.11486764445461
  C   4.15405559579937      3.40518489828970     -0.19899614819893
  N   4.54711539924907      4.67897343439168      0.02828293695008
  C   5.91859887995227      4.97193712592831      0.15315738311142
  C   6.91440512819057      4.05958083063586      0.07791127602923
  C   6.55935654624111      2.67764129007849     -0.16200686555298
  C   6.98969474490362      1.36054038349954     -0.03132093696121
  C   5.83409304338648      0.50398918251944     -0.22029926181386
  C   4.79369336898073      1.34174632316312     -0.48092419956527
  N   5.22580382185609      2.59681288355690     -0.50035793221336
  C   5.33933828116538     -0.85194683959523      0.06490059343260
  O   5.97159835176505     -1.82689406481184      0.33536056449855
  C   3.70822534690018     -0.99146102680410      0.06101713564207
  O   3.28478893088351     -2.10446838673108      0.15509538666521
  H   3.85945814370249      5.36854018779625      0.28755921625306
  H   6.12220465590205      6.01407025989766      0.34583087996392
  H   7.93269214090219      4.37812617661108      0.23617146384578
  H   7.99126608621213      1.04194154586076      0.20463925773062
