26
Coordinates from ORCA-job 11565optt
  Br  1.23561572564085     -0.18504986161187      0.77887463011504
  C   3.06640045632520     -0.21791605481926      0.23510161288634
  C   3.83280216335560      0.96952159018407      0.29071438615950
  N   3.15494068204052      2.09838461057431      0.79933453006438
  C   3.84078138137498      3.09880176991030      1.42882234465094
  N   3.64654852205350      4.34444925128610      1.61666637130294
  C   5.06699918588592      4.86796588009723      1.73600080181665
  C   5.71954666614299      3.75223966869102      0.87541605754598
  C   6.93802199654707      3.00673762663047      0.37554080445335
  C   6.27203097929398      1.94214266048921     -0.57551238338507
  C   5.19082685454365      0.87701698012047     -0.18648951739087
  C   5.59970338336444     -0.40678630484278     -0.55020732506603
  C   4.74507853505082     -1.49417546993671     -0.52614759590558
  N   3.47435814495469     -1.39062505976186     -0.16098052914858
  C   5.22008947095094     -2.79440983948774     -0.93176231060739
  N   5.63531671942730     -3.80980556949446     -1.26469758947538
  O   5.10028161738386      2.66759229388424      1.58839292791074
  H   2.15317456401739      2.14703099290358      0.69746096221392
  H   5.41731253590437      4.87827204007022      2.76817630925489
  H   5.10437553295532      5.86375981133731      1.30408461123504
  H   5.16361544500178      3.91073485784424     -0.06037661785958
  H   7.50004013653634      2.53946979545595      1.18297902448686
  H   7.60872822221315      3.60964981046359     -0.23542069562535
  H   7.08058301999758      1.36712305308850     -1.02156888303255
  H   5.83587996699565      2.51182805167740     -1.40190433909809
  H   6.61194809204203     -0.56695258475357     -0.89349758750211
