29
Coordinates from ORCA-job 11567optt
  Br  2.82679791795267     -0.81657443126627      3.36653719373020
  C   3.24399370510366     -0.25303975529550      1.63270782704074
  C   2.79156829724458      0.89309688764633      1.10146704452224
  N   1.87605523631715      1.72675517355303      1.80316973654394
  C   0.79167775643671      2.10317881919873      1.04759760381249
  N   0.27925972128264      3.25460996282482      0.91783712642425
  C   -0.73371536504946      3.09835544679771     -0.13391919623515
  C   -0.37183615634759      1.75123752822660     -0.78821252571800
  C   0.56560647232995      1.77555412971219     -1.98897843931003
  C   1.80729515060114      2.67837383731730     -1.96266867820087
  C   2.88478641848295      2.56899480946775     -0.84907680463994
  C   3.21040720386042      1.21277591920311     -0.26180531401964
  C   3.95068169684424      0.31380977087463     -0.93356006842969
  C   4.35885934233801     -0.95137773155903     -0.34791019921902
  N   4.98274499260629     -1.91757203697017     -0.86191338652101
  O   4.04366012257434     -1.10736766588182      0.99857048055303
  O   0.32951323835393      1.09102913840219      0.28002958299074
  H   2.26324585090129      2.48160023698182      2.35269320501544
  H   -0.67895762861314      3.93095628080238     -0.83611668780516
  H   -1.73918950113736      3.08203864672203      0.29326859312722
  H   -1.24686987547581      1.14770295743825     -1.02335332979246
  H   0.87519584640973      0.73994131016510     -2.15577804742208
  H   -0.01950439159174      2.06803393023984     -2.86594029086405
  H   1.49332458592824      3.72495507555692     -1.97418950739542
  H   2.30526653349438      2.50849817915698     -2.91993787454807
  H   2.62787489071370      3.25018160252894     -0.04216966098654
  H   3.81072770722850      2.95178220534973     -1.28220152226819
  H   4.29455300729703      0.51393440440495     -1.94082816385005
  H   5.19597722391352     -1.72246463159857     -1.83531869653492
