24
Coordinates from ORCA-job 11561optt
  Br  1.03050552157539     -0.00782996925420      0.28816206915022
  C   2.89622758841603      0.08373629848008      0.14263808036915
  C   3.53556617777415      1.28531102942623      0.03432824713927
  N   2.86996978719551      2.49324182135433      0.00601781729782
  C   3.55939856912072      3.66611313047982      0.08672346215048
  N   3.08031868831221      4.82950956072598     -0.07900802385763
  C   4.19958766453439      5.77247319589099      0.08215373472456
  C   5.49890020247042      4.93853875048031     -0.06972013744647
  C   5.03297716518394      3.57316968805608      0.39983767248745
  O   5.62722543855836      2.49691911154240     -0.30343062846418
  C   4.97028765353059      1.31263710652731     -0.08032387981149
  C   5.65109253894699      0.15161769647765     -0.04904735852787
  N   4.98773427404223     -1.03072238138446      0.05879805194395
  C   3.60814710201240     -1.18147724735082      0.15536702638923
  O   3.11062155192062     -2.28439219062723      0.24808264056275
  C   4.13449509885682      6.41009608997042      1.40871233662390
  N   4.11590166620646      6.88128687060601      2.45265469094156
  H   1.86226772459543      2.50346468446717     -0.08238647141862
  H   4.12281194431386      6.56003161294360     -0.66688490986321
  H   6.33900965290272      5.34081316045642      0.48939647592477
  H   5.75906928429486      4.87210406117496     -1.12621860185194
  H   5.17205485198445      3.43034127144141      1.47885932083970
  H   6.72694145950810      0.12206697477828     -0.13701376722329
  H   5.50088839374328     -1.90005032666279      0.07830215191985
