24
Coordinates from ORCA-job 11569optt
  Br  4.31260576566254      3.17819847395360      2.45308061391491
  C   3.81074178099243      0.88388009485200     -0.94082673363855
  C   3.92706110417402      1.96322709626006     -0.13351260532639
  N   3.17964578286706      3.11734260132826     -0.48341533635314
  C   1.95699015264323      2.77889329284199     -0.27739115085264
  N   0.77152543077822      3.22961695283994     -0.77096997470198
  C   -0.20251879926762      2.22782728147448     -0.55201050576831
  C   0.36423345012990      1.28415611196621      0.20572697798872
  C   0.07781128598993     -0.05856944174471      0.77749588837741
  C   0.97945231352156     -1.20643782096753      0.23403185229700
  N   2.43060988162082     -1.00693293682346      0.27993277272560
  C   3.01730875223475     -0.36722353976116     -0.75170219942824
  N   2.55567099490816     -0.26654610539677     -1.96226705940260
  O   3.40489372601154      0.90293020967043     -2.23382107205317
  C   4.35520024844378      1.65380784388991      1.24003286319999
  O   4.67809304878413      0.58129572794503      1.63828313700918
  O   1.63947597028142      1.70075231083894      0.48939219951141
  H   0.74792090414273      3.88729936014334     -1.53199190891984
  H   -1.18941354195860      2.29918480081580     -0.97058453604396
  H   -0.95846185980213     -0.33408430764494      0.57983205950365
  H   0.19965731491296      0.00312330648940      1.86255948214249
  H   0.72251706893528     -1.40381066366678     -0.80436926728521
  H   0.74264599945876     -2.10337728909870      0.80525530305385
  H   2.90333322453509     -0.94055336020534      1.16923920004983
