29
Coordinates from ORCA-job 11575optt
  Br  1.12696548951682     -1.10529017925307      0.80619648600241
  C   2.55483140415297      0.03714641904856      0.29455565671652
  C   2.97858762266240      1.00498356469136      1.14287631304870
  N   2.08667719188875      1.54594798944801      2.06526539665867
  C   1.18087759837858      2.18100920492040      1.39692762356336
  N   -0.12166239026761      2.37058817631903      1.76277869581148
  C   -0.92656314853299      2.74336640640669      0.59227023611537
  C   0.07632171176710      2.66613529307785     -0.58698814520933
  C   -0.04387697633912      1.37510468966064     -1.43007326842430
  N   1.07142200446722      1.09775642940978     -2.32740128101127
  C   1.95213550273181     -0.06319890874614     -2.18779300085559
  C   2.99377388732186      0.06219766460627     -1.08710262219824
  C   4.18528864375850      0.62668113794064     -1.30177774452328
  O   4.93536767410484      1.12728122316466     -0.28089959972501
  C   4.30380053617496      1.59048442879118      0.86707323881717
  N   4.86139644890672      2.42291151621812      1.62748909991899
  N   1.32294818187176      2.74756276872061      0.14325519387341
  H   -0.48294662143103      1.73128530431995      2.45136631200322
  H   -1.32279565883625      3.75254215046262      0.70412880789807
  H   -1.75957575381657      2.05227553667027      0.45782767309463
  H   -0.03240441710926      3.53351362784409     -1.24069427757550
  H   -0.17258163210462      0.52819740164670     -0.75836926479471
  H   -0.97399302914935      1.46313962444428     -2.00536409148100
  H   1.55520013228342      1.91964617076215     -2.65858552785487
  H   2.46692718430033     -0.19876860766198     -3.14015701466028
  H   1.33139456699333     -0.94432441730171     -2.02900711224840
  H   4.63298172632140      0.78575921340556     -2.27362769399313
  H   5.77812498597422      2.68470716712959      1.26787037806652
  H   2.17337713400978      2.56635900385388     -0.36404046703358
