27
Coordinates from ORCA-job 11572optt
  Br  1.10929769305859      0.05881908381295      0.06759155995524
  C   2.97741037084924      0.16744813711885      0.01660085485321
  C   3.64584575426234      1.35557534511856      0.02465012392587
  N   2.99437574416184      2.56905040826499      0.05899062987749
  C   3.69757181213559      3.64227717936095      0.05079710500523
  N   3.05339899138770      4.84463797502005      0.02253481651407
  C   3.68516815263088      6.12762303853874      0.23666507699964
  C   5.04428938300155      6.09919000191911     -0.43317823722574
  C   5.84664031636641      4.93983060783887      0.11907942315106
  N   5.09445929645466      3.68073292067352      0.03368929487483
  C   5.85318367344421      2.51916324385165      0.04278024641681
  O   7.06107616912444      2.56147517275843      0.08450860015898
  C   5.07682936410692      1.25448211585436      0.00227829880836
  C   5.73920671436675      0.07620504171960     -0.03704034698052
  C   5.02217246865940     -1.18145828003938     -0.06694499380478
  N   5.47312477969067     -2.37705428000510     -0.12384370569114
  N   3.63621072327000     -1.01857677834624     -0.02374795967671
  H   2.05861070343471      4.75137327014533      0.14858873778857
  H   3.80048848496622      6.35051094797366      1.30465887785865
  H   3.04842359809061      6.89718950103553     -0.19796488811026
  H   5.58392779626770      7.02724806367476     -0.24737336255982
  H   4.91605138044875      5.98689877612817     -1.51119330768430
  H   6.10959640039320      5.11859312238774      1.16566085458978
  H   6.77537677983230      4.79077497109595     -0.42516308210953
  H   6.82062332085414      0.06576851039856     -0.04718568170512
  H   6.48724939307734     -2.37709893350886     -0.14747968376866
  H   3.10539073566378     -1.87867916279078     -0.03695925146121
