24
Coordinates from ORCA-job 11576optt
  Br  1.37045719659208     -0.10075031927381      0.09697876903012
  C   3.22387393067057     -0.42187511859057      0.05108128671600
  C   3.69507080643062     -1.67011114416670     -0.08500250193989
  N   3.02840703945686     -2.86963541709069     -0.19879784653075
  C   3.89558376318500     -3.91843685993083     -0.29726903120945
  N   3.51112238758991     -5.13348359134060     -0.52527891638686
  C   4.64654648630766     -5.92536533047518     -0.51770080960127
  C   5.55096879491965     -5.75692962534391      0.47260601016287
  C   6.80156341352116     -5.19668664968931     -0.04385433095181
  N   7.94731894435553     -5.57801650225004     -0.34932901841385
  O   6.52093856056827     -3.82993522532625     -0.31526808644454
  C   5.28388939205346     -3.28686694500689     -0.21243900963067
  C   5.11604336295031     -1.94687778817489     -0.10572365724146
  C   6.08564185625876     -0.84095239125792     -0.00041192148593
  N   7.35680112229074     -0.94750602647308     -0.03542719291482
  C   5.48318358198987      0.49110386998998      0.15553377480075
  C   4.15557484541101      0.68400817151985      0.17327363615969
  H   2.02770823842279     -2.97880488288923     -0.23916629078222
  H   4.86786006816345     -6.47842349874441     -1.42695298142550
  H   5.18606666238880     -5.23978626115081      1.35650446363535
  H   8.07030726826366     -6.55033559377824     -0.08116863612667
  H   7.64716059475045     -1.91618092366157     -0.16507257314046
  H   6.17580341338563      1.31676059385933      0.24354248486460
  H   3.74210827007367      1.67808745924578      0.28034237885679
