22
Coordinates from ORCA-job 11577optt
  Br  1.01749736537065      0.34994906941623     -0.08855641016700
  C   2.89068777912983      0.21325962885387     -0.08355427442920
  C   3.67756963817183      1.32843645125177     -0.08035070010304
  N   3.06321326732467      2.57061559704610     -0.07936128377499
  C   3.86641489068082      3.55599010606402     -0.07747949887776
  N   3.55349401170416      4.90426624631407     -0.07598784366105
  C   4.70996444804087      5.62673900263807     -0.07538066319163
  C   5.81787297134860      4.82613254463228     -0.07612733616926
  C   7.19928041353101      5.30094141271325     -0.07639966022117
  O   7.49900780968235      6.46987153932191     -0.07555621450711
  C   5.33189518619878      3.46517234570687     -0.07714664793189
  N   5.94368338950454      2.33532537280334     -0.07750585546781
  C   5.13972505045615      1.19730697657378     -0.07849383234699
  C   5.79653403329549      0.00504123294546     -0.07773410489206
  C   5.20513159853495     -1.30637755583075     -0.07842172313135
  N   5.77236632732561     -2.44439521079781     -0.07615204943908
  S   3.42634438341134     -1.40822744218746     -0.08399584569303
  H   2.61763965382999      5.27390716540243     -0.07575895930645
  H   4.69253422701517      6.70636968647278     -0.07446907157657
  H   7.96846809884364      4.51137720448298     -0.07777762161969
  H   6.87962856592713      0.04646245304952     -0.07626034640492
  H   6.78604689067234     -2.34716382687275     -0.07353005708796
