24
Coordinates from ORCA-job 11582optt
  Br  3.86086634153483     -1.20863719204369     -2.42056945157317
  C   3.70721375639717     -0.34157150433318     -0.77825640851381
  C   2.98390846548664      0.77922593672663     -0.61851675354421
  N   2.18150583587242      1.32594965317421     -1.64491144484302
  C   1.18175889902284      2.12069905655564     -1.06324679429028
  N   1.22007904337553      3.38291400398219     -0.92722821400380
  C   0.39397235570540      3.60401234654062      0.28165963377921
  C   -0.61101918258486      2.44867788540788      0.26412207756565
  N   0.26778975260986      1.42717008520324     -0.29219680693900
  C   1.40325319890653      3.45384455378399      1.46540260534755
  C   2.75831360843859      2.91495234952088      1.00352177947525
  O   3.72009815943952      3.62122398793096      0.92926661557330
  C   3.03400308503006      1.41057344363284      0.71062931068776
  N   3.54735234813852      0.84457404728986      1.73095199486583
  O   4.09543297708237     -0.40092464188833      1.58786683763574
  C   4.33472865205809     -0.99448969655912      0.37496710201294
  O   4.95240247894215     -2.01300381892960      0.35168534346459
  H   2.69470686229667      1.77008626241266     -2.39781188576624
  H   -0.07607067450204      4.58279928889822      0.29043607550516
  H   -1.45453888716837      2.66209895843001     -0.39969452407367
  H   -0.97677465298327      2.18078818733095      1.25334897358870
  H   -0.08548900230923      0.54940424049126     -0.64218363871862
  H   0.99795672531027      2.80874404831160      2.24730652018044
  H   1.62354985390028      4.42788851813026      1.89745105258371
