25
Coordinates from ORCA-job 11593optt
  Br  1.01504104970189      0.06323321740457      0.07602110132047
  C   2.89739096969226     -0.03438193183285      0.05107670307947
  C   3.61924418487114      1.16870857911549      0.04516604681468
  N   2.98350988552396      2.38665630988876      0.05131640618831
  C   3.66526647024522      3.57286283892333      0.04180799395647
  N   3.13955081568091      4.73112131907244      0.03868237516000
  C   4.26074382100007      5.66734255341326      0.03075847885815
  C   5.52511817477075      4.81390192917360      0.03170755160217
  N   6.76376859699163      5.06677511451754      0.02982074115509
  N   5.04524972137808      3.51648552300328      0.03611104398005
  C   5.87163643768503      2.33497098113462      0.03858227518778
  C   5.01504667686615      1.09659055732260      0.03308067008030
  C   5.60152304301338     -0.15834409072867      0.01447949470418
  N   4.92495588165649     -1.29445107950225      0.00832530230597
  C   3.59155497985909     -1.23806342502975      0.03167166283419
  C   2.96986427390265     -2.60349473833376      0.03231435222775
  O   1.80235131319630     -2.84928147934393      0.13135595219359
  H   1.97498121575864      2.43089058988333      0.05529163633434
  H   4.23331112493541      6.31493164415488      0.90959949958604
  H   4.22914061267795      6.30564588443969     -0.85476726408206
  H   6.93500827805409      6.06824675023294      0.02704297472442
  H   6.52065546018783      2.35145722658237      0.91911219310723
  H   6.52916452326864      2.35468672119546     -0.83529513740022
  H   6.68448872737432     -0.23875835030084      0.00085249298471
  H   3.73743376170806     -3.39073264438616     -0.06611454690305
