26
Coordinates from ORCA-job 11597optt
  Br  1.75851706460284     -0.99774755453133      1.61891857203092
  C   2.94910111868020     -0.04879689261451      0.45866276067897
  C   3.36528756260107      1.24341161820705      0.67204131713416
  N   2.68056068938248      2.36469094686181      1.00406709483275
  C   1.49004151534799      2.44710125977118      0.47683571776903
  N   0.47330021579176      1.58575821502487      0.43683238480873
  C   -0.36678799944498      1.78339095083649     -0.72104180854614
  C   0.04525485872757      3.22796691196122     -1.07667182752506
  O   1.19506480894332      3.52112913021916     -0.26874570325134
  C   -0.09323477555059      0.68726542926875     -1.78203795899685
  N   1.30969679434496      0.42847351991794     -2.02438020602297
  C   1.91089087867459     -0.86836647065976     -1.68233958294282
  C   3.17529835527606     -0.57393970738380     -0.87988599549265
  N   4.25283943271005     -0.43560350041537     -1.55967070276313
  S   5.54827765043418      0.35787877283539     -0.86070201997066
  C   4.81674030553558      1.48306881838021      0.32025677497872
  O   5.48658762628857      2.33105991808285      0.83440485131575
  H   0.49847748638826      0.71879494811535      0.94894756371371
  H   -1.42370592016426      1.74226060361966     -0.45190268004941
  H   -0.73408286233647      3.94988702370702     -0.84058671061112
  H   0.34082270555280      3.33442905689707     -2.12009595708477
  H   -0.57969472565117     -0.22705685197669     -1.42821714751372
  H   -0.61246029831141      0.97865800713117     -2.70096140444954
  H   1.64197925152967      0.76785883789447     -2.91226170807250
  H   2.19816048019286     -1.43165643736621     -2.57137503458084
  H   1.19506778045403     -1.45491655378401     -1.10809058938919
