25
Coordinates from ORCA-job 11605optt
  Br  1.27723698585222      0.48556074605681     -0.86805245946822
  C   3.03171029556148      0.15780811471284     -0.22672264307356
  C   3.71297209880201     -1.00531499071039     -0.61170357912063
  N   3.09831590081064     -1.91000293824878     -1.47772133150595
  C   3.16941580792353     -3.26881198240589     -1.33850384598626
  N   2.42913598766432     -4.08146917564926     -1.97701136231274
  C   2.78434641284012     -5.44804911583491     -1.62651032591754
  C   3.94037643000915     -5.35563287529427     -0.63939319077594
  O   4.55194131237481     -6.24571735620162     -0.13551533104727
  C   4.18584865258354     -3.85384924378067     -0.40050866581466
  O   5.50562249214401     -3.53297455549064     -0.77389684561343
  C   5.95687729508076     -2.25672110155992     -0.60228930332885
  N   7.16461277799968     -1.97930849267130     -0.81858947340509
  C   5.02622382833827     -1.18154676611652     -0.13781775727050
  C   5.57858752982432     -0.23856428326262      0.72671829216112
  C   4.87441744419222      0.88487138755704      1.11489734448251
  C   3.59672142591526      1.09226207321767      0.62002669958335
  H   2.30818928526873     -1.57591249251229     -2.01342839969602
  H   3.08206260540169     -6.02129598674602     -2.50754765653449
  H   1.94365670041398     -5.97473729637381     -1.16846439275936
  H   3.99428033112178     -3.59629545028570      0.64638177790957
  H   7.67981842743124     -2.81446248936131     -1.09536221344841
  H   6.59409140583922     -0.39851364601557      1.06016076360860
  H   5.31830720620407      1.60568897211717      1.78718098613385
  H   3.02823136040288      1.96998894485999      0.89467291319993
