26
Coordinates from ORCA-job 11604optt
  Br  0.97413663292899     -0.01311845459999      0.37493690851816
  C   2.85932292100682      0.07004693425239      0.21327660381248
  C   3.51807499318769      1.30392285230043      0.36648941182171
  N   2.71407623254911      2.40070949731049      0.67894487000796
  C   2.95935498984743      3.54670383255396      0.19768235533018
  N   2.16445397911218      4.63365199069251      0.39641009002779
  C   2.57363125006486      5.84112471445035     -0.27879125177913
  C   3.94665898443292      5.46269284487672     -0.81527117707704
  O   4.76921084851296      6.22081252443694     -1.23192560993358
  C   4.14495951138486      3.95653576437287     -0.64407097398815
  N   5.37107921411945      3.72688765492745      0.06503589753511
  C   5.81861516903570      2.48531664957182      0.47005922082184
  N   6.96257469844391      2.28479014291242      0.99205922864421
  C   4.92472120698614      1.30059695789388      0.25109659580446
  C   5.59558526967730      0.10681712489460     -0.02133755160929
  C   4.91464976257197     -1.08050246113708     -0.19261755828343
  C   3.53289400577159     -1.10036692544512     -0.07065873078046
  H   1.29732278296739      4.53518180032149      0.89853037627219
  H   2.67211752586871      6.69850173788842      0.38913937701527
  H   1.91672277391407      6.12122319878616     -1.10858991119543
  H   4.10350055940650      3.46411274472759     -1.62606680647882
  H   6.06085773920753      4.46186625319382      0.00214822621013
  H   7.50563466024170      3.14358171759633      1.06421248832464
  H   6.67388233369741      0.14143768658408     -0.07743763206848
  H   5.45234583430406     -1.99283805284156     -0.41167432310460
  H   2.97561612075868     -2.01868873052103     -0.19258012384771
