20
Coordinates from ORCA-job 11606optt
  Br  1.42671257098552     -1.41590511839286     -0.49955526510076
  C   3.11939363010693     -0.54551072411037     -0.20286852740522
  C   3.08284050510687      0.91104370724204     -0.21489821906413
  N   1.98595161901384      1.68639728963997     -0.41174178347540
  C   2.37382625046170      2.92606786282402     -0.32685946798887
  N   1.50007422925791      3.95794781477819     -0.48329356788266
  C   1.70509139350173      5.20713893879676     -0.40663600415974
  C   2.94185333610817      6.00490653697642     -0.11763285597700
  O   2.82253358065252      7.20874172626985     -0.07311842998742
  C   4.25467785027002      5.38512487422780      0.09707991120649
  C   4.58485976827437      4.09341618352211      0.11163504773958
  N   3.75742070397069      2.99627153635620     -0.06977928159025
  C   4.19760788582310      1.69863508134286     -0.00452036919393
  N   5.51135208922803      1.43959452483394      0.23087181633553
  C   6.18265727296218      0.42938138985826      0.33561853703969
  O   6.96146061952315     -0.40508453150234      0.46261727678416
  O   4.11327284855148     -1.17636692115934     -0.02035696144880
  H   0.84779650478593      5.85870289093387     -0.56809765644173
  H   5.04821092951010      6.10069143347623      0.26719866264870
  H   5.61140641190572      3.80180550408637      0.28933713796176
