25
Coordinates from ORCA-job 11600optt
  Br  1.46689703029380     -0.97628134755276      2.10520570581943
  C   2.61771210827774     -0.17762493205841      0.84485645297252
  C   3.20339553226435      1.06655871332730      1.04978079887808
  N   2.48137166006133      2.06453158853070      1.79524259977498
  C   1.44794467921055      2.41672172380926      0.88788258625316
  N   1.47938033192139      3.31649039241744      0.00615163166220
  C   0.32144339225916      3.04435172030133     -0.85938329007620
  C   -0.08400997711822      1.62243851665076     -0.46423404277851
  O   0.40820294104723      1.53875364405240      0.86263574409621
  O   0.66608250502362      0.68924564459331     -1.22944058514283
  C   0.39714814421254     -0.63840962554917     -1.00423950236376
  O   -0.70152554509054     -1.04191207269732     -0.78665477668330
  C   1.65724314124161     -1.50786192453425     -1.04902571256211
  C   2.80171620778911     -0.75463058695165     -0.41838329203271
  N   3.82183164408606     -0.41526252670876     -1.19237108726916
  C   4.63155911264059      0.56172361347058     -0.78832580772952
  C   4.29705752731112      1.40304089481226      0.25771686663868
  H   3.06402617574153      2.88283860675696      1.93753350625584
  H   0.61744730685090      3.10146146627634     -1.90468229473588
  H   -0.48556008364093      3.75490549126116     -0.67351888212155
  H   -1.13999031472429      1.37171237817090     -0.46777724826069
  H   1.91830032157677     -1.70906126209680     -2.08858932593612
  H   1.40402580602856     -2.44300873328117     -0.55364637794574
  H   5.50346791818892      0.75529152763549     -1.40103083808164
  H   4.80683243454709      2.34798708936407      0.39629717136861
