22
Coordinates from ORCA-job 11603optt
  Br  3.82412703859528      0.82166418892917     -3.31800505324408
  C   2.07716175334642      1.45951097098457     -3.16420874824721
  C   1.67227872856315      2.16690305116347     -2.08261342447319
  N   2.40509173284557      2.56629755649604     -0.96468165799305
  C   1.55857896749406      3.15681122261495     -0.20682777292292
  N   1.69104843133060      3.97792929797559      0.85122983946458
  C   0.57582853346521      4.93156620066585      0.91159581884653
  C   -0.23651775572239      4.62384409126256     -0.36455252265424
  O   -0.94794378060329      5.36163625711302     -0.95493221673864
  C   0.12523179243539      3.14694046746575     -0.69420247592461
  C   -0.75371224669166      2.30359301727710      0.11135178515140
  C   -1.48858443913095      1.63243275613731      0.77446677120182
  N   0.37098569509371      2.64833835606624     -2.02137212103965
  N   -0.59578186361452      2.37297833824161     -2.89270522056464
  C   -0.24349789856705      1.71024288290736     -3.93695292699334
  C   1.11478020359244      1.19086792536866     -4.22237162335729
  O   1.35350002385290      0.57940778279176     -5.24401301920435
  H   2.61751513581155      4.25436916328922      1.13876246494165
  H   0.92109692841378      5.96384744394612      0.88752736403384
  H   -0.05118197070533      4.77896175799872      1.79165253705650
  H   -2.13644946181493      1.02094561093242      1.35750380013685
  H   -1.01555554798996      1.50391166037247     -4.66765159747592
