22
Coordinates from ORCA-job 11609optt
  Br  1.09555565955366     -0.24061297937914     -0.20447155640729
  C   2.96410842469714     -0.22986400882349      0.00122349885175
  C   3.69814538762491     -1.37146410188517     -0.06123731196780
  N   3.13780768907273     -2.61771775922801     -0.25976597393042
  C   3.93536138857299     -3.61030602278357     -0.13344677399584
  N   3.69692734196379     -4.95102420463378     -0.24538082625981
  C   4.87413391572071     -5.59971860878090      0.00722216072804
  C   4.99965061612590     -7.06684643911020     -0.01824159585045
  O   4.05091942524806     -7.75875705821170     -0.26646647048600
  N   5.84769572155530     -4.78167326590254      0.26331548091870
  N   5.27835586151591     -3.55705017326235      0.17736203044097
  C   5.89637409478914     -2.33629148208166      0.30385674921751
  C   5.14221264167000     -1.23184117438669      0.13957463898640
  C   5.73633004978972      0.13859284214691      0.16308740373671
  N   6.95207647021991      0.40507424075183     -0.10293113882314
  N   4.87840792426636      1.19216991876786      0.47838083986346
  C   3.61234797169720      1.00289459711076      0.36401368923787
  H   2.81273097712430     -5.38549112271907     -0.46090745521583
  H   6.00350449150985     -7.45772962867362      0.20102112065558
  H   6.95344880359120     -2.35468774411946      0.52742718366397
  H   7.46146795170862     -0.42684776133288     -0.39368774411238
  H   2.96543719198257      1.85019193653691      0.58005205074798
