21
Coordinates from ORCA-job 11614optt
  Br  2.24890943843058     -2.37241949954490      0.67851759386979
  C   3.47767212578952     -0.98612468441268      0.41704307750551
  C   3.09253188165288      0.29892777708552      0.17924410989537
  N   1.75861848317986      0.57511399408335      0.09672279687149
  C   1.22740619364564      1.70555317794080     -0.14301748616002
  N   1.74938407015913      2.95510441876630     -0.29352430655789
  C   0.67848811309537      3.84068481932788     -0.48055627754933
  N   -0.47556772327320      3.30849952589981     -0.52026471915923
  C   -0.25829960142018      1.92290851600442     -0.31758461947878
  N   -1.15407132845484      1.04472154681372     -0.29629124775688
  N   3.00793408556490      3.42569910805950     -0.07222992349377
  C   3.99335801766861      2.64039275761607      0.04568301279869
  N   4.11855190295238      1.23642238726563      0.00067770451385
  C   5.49527913394588      0.81727610816348     -0.14631463822088
  O   6.30281804028331      1.59753869932686     -0.56703098160537
  N   5.81713692279443     -0.46942730653113      0.24322676251422
  C   4.87006346824251     -1.29957546973275      0.49279459922715
  H   0.90912922031791      4.89334306387507     -0.57925770762363
  H   -0.72585076452353      0.13015864933774     -0.12708743073569
  H   4.95258749205118      3.11540715858257      0.19219540453135
  H   5.14992082789762     -2.30920474792730      0.78205427661404
