24
Coordinates from ORCA-job 11616optt
  Br  3.98375065710928      0.96049202058863     -3.96279286882233
  C   2.25735597210133      1.49717645025149     -3.51473568113114
  C   1.93629828868960      2.18068631429370     -2.41278163207214
  N   2.77288669565837      2.70323768425376     -1.40336046015501
  C   1.97642469649392      3.27625269168996     -0.59397928093984
  N   2.18245622975169      4.17097102232703      0.42203818405077
  C   1.08867305710350      5.05572382304798      0.51815821496957
  N   0.94450739323253      6.05081824789331      1.27083239102039
  C   0.05725898973250      4.62072234444209     -0.52232195567761
  C   0.48597096396505      3.17794421192679     -0.86128389914588
  C   -0.18820747242817      2.26585534405190      0.17234101012452
  O   -0.91133776824864      1.35925493268757     -0.10066434168457
  C   0.53773612381663      2.54361186761280     -2.21864037907318
  C   -0.39945951357834      2.19618307194816     -3.10114234643654
  C   -0.01110106491181      1.45691036215924     -4.30265023472342
  N   -0.73779103093433      1.05669547180136     -5.25030268990569
  O   1.33608921957434      1.14352349333607     -4.42475776097499
  H   3.10707666251937      4.42484173604288      0.73620599508186
  H   1.74192714319288      6.20769732002593      1.88475570035654
  H   0.16424836631419      5.26141921831042     -1.39908021153204
  H   -0.95332512382113      4.72565933115078     -0.13420744447183
  H   0.01738461686415      2.55077482078177      1.22291175702629
  H   -1.44971563165489      2.41608419277348     -2.96951558683766
  H   -1.70610747054201      1.31646402660288     -5.09002647904606
