23
Coordinates from ORCA-job 11612optt
  Br  1.62694165449840      0.54607792587650      1.45543089995821
  C   3.20884688989375      0.07919260733255      0.59871489928762
  C   3.64189716223256     -1.17174000099227      0.40774255538632
  N   3.04745554816865     -2.42799253675112      0.65196942749975
  C   3.98324248637944     -3.25672189498639      0.40164726577710
  N   4.00186375138135     -4.58693653831411      0.06167967813175
  C   5.05582071965157     -4.68421284100774     -0.86395850696938
  N   5.82179386650295     -3.67165741443355     -0.97726275525798
  C   5.35041178044232     -2.73332247111952      0.03889066125011
  C   6.35182742744181     -2.77703695460701      1.22427380601204
  C   5.85661144227571     -2.00850537209914      2.42945290918147
  O   5.29500669665646     -2.54311556561665      3.34301363899843
  C   4.97002859538021     -1.28050642988710     -0.18526288048773
  N   5.68466200676747     -0.32001560177613     -0.61134671489385
  C   5.10351986769621      0.95422425693836     -0.56700975495486
  N   5.54474743168927      1.98882033519885     -1.11655345898023
  O   3.93601234466833      1.12326920347372      0.18328718993823
  H   3.16829726797863     -5.15109651847382      0.00503449869694
  H   5.17870860470987     -5.60141670077285     -1.42542796049783
  H   7.28703678099763     -2.35644499666295      0.85007255255959
  H   6.49260416314730     -3.81854048315328      1.51227696263901
  H   6.02211172400153     -0.91474903785372      2.42616757023737
  H   6.41255178743851      1.76442702968738     -1.59583248351209
