23
Coordinates from ORCA-job 11618optt
  Br  1.25346142894555      0.06465776951578     -0.94367650139447
  C   3.07033972054469     -0.09593622138448     -0.45512829736864
  C   3.57118349693483     -1.33964006456718     -0.09268666337698
  N   2.78632647146656     -2.47785486452415      0.05820245869296
  C   3.42197888460816     -3.57363203800762      0.15688174408905
  N   2.77874457253529     -4.76612054446101      0.32438251017739
  C   3.46387335571555     -5.96642734696005      0.47701944126292
  N   4.69832829210821     -6.08046610759092      0.70631604326883
  C   5.45119135268720     -4.85329933727146      0.87955525743122
  C   4.93485043747862     -3.68415309357479      0.03124639188344
  O   5.53976439498071     -2.50347725796749      0.54500103909585
  C   4.94286046381542     -1.34072303807469      0.19780831415682
  N   5.69102225367942     -0.26349184845910      0.21359638593741
  C   5.07579549341138      0.86666790249210     -0.12105336674245
  N   3.80510934280310      0.99847521606153     -0.47653847679941
  C   5.25525559078563     -3.86154223519131     -1.39186004144695
  C   5.49530962905851     -4.01324680785873     -2.55377089591558
  H   1.77149542403180     -4.75482450403731      0.26122724222734
  H   2.83660245386122     -6.84880460090171      0.39857931917938
  H   6.49812399980660     -5.02827268392854      0.64004373107749
  H   5.39244455087192     -4.54434622733675      1.92793507982782
  H   5.67484423796772      1.76918349279433     -0.11155443817635
  H   5.71409415190188     -4.14272555876642     -3.58752627708709
