22
Coordinates from ORCA-job 11623optt
  Br  1.02383042255847     -0.20565258330484      0.00112386659331
  C   2.87727397088019      0.06373434545005     -0.13105204918583
  C   3.42898669395889      1.26917083854519     -0.00730545007980
  N   2.72431105050743      2.44563784430783      0.17577800356826
  C   3.30486647626589      3.65441933773530      0.03337806364822
  N   2.68353918414993      4.78179831007093      0.04820050669986
  C   3.67741321285198      5.75291612033155     -0.12507222518473
  N   3.57477428457675      7.00582544332833     -0.18896180690581
  C   5.02232227584040      5.06551310454766     -0.24980390083126
  N   6.16539848773060      5.53919414210574     -0.41867609515909
  N   4.67991332768411      3.69125807154548     -0.14196761112193
  C   5.53882381801726      2.58178025142907     -0.03840003634881
  O   6.72446102946681      2.66186788581831     -0.01095401668650
  N   4.83095341987060      1.38328598183189      0.02902762629314
  N   5.60320654587503      0.25180896764996      0.29458334892322
  C   5.02983852384406     -0.86931215088297      0.16565003294844
  N   3.68970580583831     -1.08238427568917     -0.12456914846948
  H   1.71636047816778      2.41534442919381      0.23595790682722
  H   2.60211087178407      7.29395343238096     -0.09018004338041
  H   6.07565592212642      6.55745107705639     -0.45986424124824
  H   5.63125792810184     -1.75268023438999      0.34065859163008
  H   3.46399626990314     -1.82593033906154     -0.76955132252984
