22
Coordinates from ORCA-job 11620optt
  Br  1.81255965227263      0.35305887559512      0.36050769445810
  C   3.58066227320177     -0.06683791877148     -0.06690046243365
  C   4.06472542827412     -1.34926625538088      0.01226182144250
  N   3.54408311864626     -2.54278341633713      0.35710680238412
  C   4.56216018995250     -3.40507869871260      0.23364414551564
  N   4.32595713118104     -4.71016154952695      0.52148238131088
  C   5.16516663299775     -5.82024329397372      0.51724271188129
  N   4.75381201341708     -6.98358701000634      0.83154085291183
  C   6.59795577807744     -5.74362836861322      0.15242438575674
  C   7.40654069539751     -4.75810376267302     -0.24068956140960
  C   7.10669728837968     -3.32837952921381     -0.44889006222517
  O   7.98719675343835     -2.56738251113855     -0.83328949782432
  C   5.78672230284676     -2.81836289346638     -0.19826804214072
  C   5.44781418776101     -1.47852517021553     -0.33894050711089
  N   6.12322634472585     -0.39217031731684     -0.70181753539540
  N   5.59289870203540      0.82501844118721     -0.76362605437398
  N   4.36178623723683      0.96738906277056     -0.45325396151679
  H   3.36904729088075     -4.88354981731202      0.80092640871477
  H   3.76440484154262     -6.99971861008350      1.07562867422950
  H   7.02931697630973     -6.73300751400956      0.24069855483219
  H   8.44165196190282     -5.00307453142325     -0.44862874451423
  H   7.10561419952207     -0.47060521137808     -0.95316000449279
