24
Coordinates from ORCA-job 11625optt
  Br  4.44081398726048      1.61583762501523     -3.71815291253650
  C   2.61777762902972      2.00054958163230     -3.44824365563817
  C   2.20596422145682      2.61958465072129     -2.28777000997999
  N   3.01993918081158      3.09673246362872     -1.22760804629429
  C   2.16911195962068      3.56412327484665     -0.39932021460794
  N   2.22226714009056      4.46583068686051      0.61318374669245
  C   0.98543585954064      5.16648836589586      0.63933354780805
  N   0.63672700232116      6.15156960449153      1.32135030626911
  O   0.14520507800130      4.59635597350662     -0.27455186429278
  C   0.71312911199257      3.36173994895904     -0.69553046155257
  C   0.83415260942566      2.89195098662036     -2.11608451281389
  C   -0.05591903399864      2.52967689022456     -3.09560842237204
  N   0.35253806471678      1.95738776640336     -4.23173943989343
  C   1.64165986804583      1.68819985266242     -4.40754930699093
  C   2.00262528066243      0.98709093570213     -5.68156137208034
  C   2.30740408791900     -0.48158746561864     -5.47697450204957
  O   2.25503177841142     -1.04628243308234     -4.42338159216958
  H   3.07328370529424      4.92528519547520      0.89778672084368
  H   1.36218589591519      6.46317983054129      1.95798431829141
  H   0.28943880652676      2.55702018592753     -0.08289888750563
  H   -1.12034765101935      2.70782925868224     -2.99673816331143
  H   2.87297911586623      1.43722326031384     -6.16718474805754
  H   1.16346582457314      1.05800973530241     -6.37676407979689
  H   2.58513047753575     -1.02679617471216     -6.39897644796114
