26
Coordinates from ORCA-job 11629optt
  Br  1.88260836593478      0.21525732970721      1.82939891819322
  C   3.38424862265945      0.21083035646802      0.71003158055291
  C   4.07511546989937      1.31872817610462      0.37047177919344
  N   4.06217291709334      2.64567179022307      0.86847831592014
  C   5.20439681379362      3.13373588442991      0.55514364536411
  N   5.61942485383014      4.44625422480031      0.49187019928991
  C   6.37249208666205      4.64065694652665     -0.67268020113823
  O   6.79280618181256      5.69436694379386     -1.05092240027920
  C   6.46553391371266      3.28387130123304     -1.38595198354964
  C   6.15992293093714      2.27700248892452     -0.26143759582035
  C   7.45055916164782      1.58938656847055      0.27562308235962
  C   7.41849860168156      0.18784200993188     -0.42168345717978
  C   5.92858607315405     -0.09549319782815     -0.42691917536964
  C   5.28630005687773      1.07378442369809     -0.34617540422538
  C   5.16699771662296     -1.30058532726575     -0.14451926615419
  N   5.49768076174219     -2.53001995595481     -0.23466240761471
  N   3.85979430467156     -1.01310856579494      0.31226109486288
  H   5.12368559882907      5.21650099084229      0.91617404041919
  H   7.43180396989872      3.15774299976796     -1.86792648640929
  H   5.68655275640676      3.29137327314415     -2.15207527480190
  H   7.37122434202919      1.44045293921334      1.35343159578316
  H   8.35457522009086      2.16240835982815      0.06824330703086
  H   7.97876139811552     -0.56142528282981      0.13831023973220
  H   7.84556372143329      0.23543413542605     -1.42724323009792
  H   6.43141284402770     -2.62218902573075     -0.62151662683304
  H   3.31728131643585     -1.83647978712947      0.53327571077164
