20
Coordinates from ORCA-job 11627optt
  Br  1.07984523731682      0.08743559123953     -0.07248446006319
  C   2.94404017189461      0.15287147590017     -0.16019796726809
  C   3.63764030113072      1.30078638510646     -0.03056217498851
  N   3.00929109522048      2.50052593674233      0.19418659809040
  C   3.75639924874304      3.53108631944662      0.23647323130119
  N   3.37582934040536      4.87514520470534      0.36891028503477
  C   4.44684748379323      5.52360842491050      0.14353342741321
  O   5.58534198187958      4.81490369810366     -0.13064228708186
  C   5.17904737810568      3.51920630762336     -0.02218108462300
  C   5.84147668772750      2.38364278906106     -0.21762427028853
  Br  7.58392126416972      2.36953591384769     -0.87968350805651
  N   5.08797682739787      1.19966402616555     -0.04508199947766
  C   5.72306821499998      0.00353892887662      0.27182739759147
  O   6.87378776778189     -0.07096754696667      0.61238201908210
  C   4.90129461665364     -1.25093291886475      0.07695373613696
  N   5.39262353919211     -2.40916595530447      0.17747257895801
  N   3.58483397232525     -1.05535254422370     -0.27559540067643
  H   4.56942941244897      6.59641374618341      0.14333446387221
  H   6.38048161383850     -2.33461061681888      0.41539688477650
  H   3.03782384497501     -1.88933516573384     -0.43541746973306
