19
Coordinates from ORCA-job 11628optt
  Br  2.24367478936102     -1.25140139805268      2.89151900141323
  C   3.29548226880462     -0.66326286776248      1.47902817965337
  C   3.05827985687970      0.49874855325759      0.78796751066955
  N   1.92193203610508      1.19959802644442      1.09600431655915
  C   1.45616328767929      2.15926662027893      0.41280017923132
  N   0.18412585015429      2.71435870005943      0.63378946319098
  C   -0.03730104139605      3.42564616322899     -0.39162241356584
  O   0.94578424639438      3.49996660028990     -1.34127890269811
  C   1.98871179908533      2.78170327016595     -0.83298598029548
  N   3.10756995493915      2.78687248292963     -1.40362198544595
  C   4.22396952583697      2.20445752532601     -0.78916594609000
  O   5.27708297540783      2.76299558753201     -0.76787365670915
  C   4.10028477955971      0.81234413298649     -0.18166967117905
  N   5.04118821646690      0.00527900079754     -0.50209271947366
  C   5.08850403582275     -1.25443262299611      0.05684406468462
  N   5.78880526243199     -2.23005250875560     -0.28682265539631
  O   4.28743579785289     -1.46960102331928      1.20016323469147
  H   -0.92789397265114      3.99552177042261     -0.61228357104459
  H   6.36520033126527     -1.96500801283337     -1.08169844819554
