21
Coordinates from ORCA-job 11630optt
  Br  1.13718058984282     -0.05671569111632      0.08374464622676
  C   3.00792222019371      0.01013404457487      0.08317453619800
  C   3.65917132421982      1.21789136820777      0.08311623384875
  N   2.98684395737599      2.41976707967213      0.08336699819203
  C   3.74729960775940      3.45234312270109      0.08345718300032
  N   3.36894024176418      4.75045616638212      0.08374292381971
  C   4.50522146878745      5.59864073769750      0.08380930626417
  O   4.44163275888047      6.79778935110022      0.08409310508147
  C   5.67647538933636      4.70428093569788      0.08357122022310
  C   5.22964362504190      3.43323131646860      0.08332466439800
  N   5.88047936059142      2.23401184200280      0.08302996135604
  C   5.10749259202694      1.19304901154712      0.08290910105520
  N   5.68915306900390     -0.07609235058611      0.08265854096017
  C   7.11421504649897     -0.22691706581751      0.08250469130592
  O   7.62326487035458     -1.30245297929710      0.08251593251856
  C   4.91475370878986     -1.20386307416469      0.08265013313405
  N   3.63105612089990     -1.19499182925340      0.08290778726000
  H   2.41896023725117      5.08583489121575      0.08386755667754
  H   6.69098037256047      5.06460760269042      0.08360368719079
  H   7.63155710511989      0.73467297843065      0.08252036228168
  H   5.46975633370074     -2.13267745815382      0.08243142900775
