24
Coordinates from ORCA-job 11633optt
  Br  1.27540486309399      0.44095566216662      0.34020555998285
  C   3.12063900127456      0.30970360589561      0.08904733279262
  C   3.90267764321288      1.42316283220082      0.09454777316725
  N   3.55116573786372      2.75081943324895      0.27191530850801
  C   4.69486018483132      3.36733917117272      0.17423749750849
  N   5.12085959979031      4.65729392974565      0.23040271029473
  C   6.49572959392458      4.66768573961284      0.03686867055863
  O   7.13103130293252      5.85524195786737      0.06686221178386
  C   8.13037866094311      6.06084839214371     -0.86336448529160
  N   8.97683710268098      6.96819603397454     -0.77157792758520
  C   6.94218212965757      3.40460584483873     -0.13526578872381
  N   5.80568290206310      2.60130199951721     -0.05322440661287
  C   5.33794813681103      1.29026298945629     -0.11396723747547
  C   5.91075673457221      0.09166041572870     -0.30263701873315
  N   5.09052112934028     -1.00138305690378     -0.29330703404527
  C   3.69524587047246     -1.01264986186317     -0.10796012580458
  N   2.99217458777436     -2.08216408936183     -0.11178404128224
  H   4.54003344882014      5.46498222496456      0.37750808944224
  H   8.09203697429266      5.36116712654216     -1.69624708131842
  H   8.86145026935829      7.51692622261641      0.08058706317275
  H   7.93879649545497      3.03204236317883     -0.28238895739538
  H   6.96420444252527     -0.08196264384276     -0.46302958457747
  H   5.51126701827531     -1.90504135232817     -0.43733724071682
  H   3.55611617003430     -2.91499494057201     -0.26009128764915
