21
Coordinates from ORCA-job 11638optt
  Br  1.17993212333756     -0.33848954614623     -0.13694878694683
  C   3.06267183687792     -0.30973789906400     -0.02066907575982
  C   3.76756283328300     -1.46276186013388      0.05737375327531
  N   3.15124897207370     -2.71564728901106      0.05333903275663
  C   3.93955028961529     -3.71041873179492      0.03979844330894
  N   3.68613456111904     -5.06569994835387      0.02382742769469
  C   2.41444925967620     -5.68474221698043      0.04284781211771
  O   2.27001346775568     -6.86141904201025      0.01997707918356
  N   4.86798459081155     -5.76034499355962     -0.00161009780591
  N   5.81785021738169     -4.94861538525882      0.00238299317807
  N   5.31077847935333     -3.68921092001777      0.02767351555688
  C   5.98052666050008     -2.49038057252728      0.08467763359055
  C   5.23516603723915     -1.36948719458005      0.12809777400280
  C   5.85342821769644     -0.02269263804725      0.22017511048552
  N   7.07382810746389      0.26575812883867      0.44578713293361
  C   4.89942382852884      1.08410106751791      0.04510650376475
  N   3.63349257633655      0.93821050014147     -0.05039496143764
  H   1.62315349159341     -4.92528599203463      0.08496076917328
  H   7.05967895306905     -2.54489634217751      0.08792995073756
  H   7.65945361962681     -0.55374409797605      0.60145269669229
  H   5.31967187666076      2.08450497317559      0.02421529349804
