21
Coordinates from ORCA-job 11636optt
  Br  0.99704223691080     -0.09022774697735      0.19273277688596
  C   2.87877012052641      0.03091754668076      0.09357763266061
  C   3.44950264679345      1.27524199770429      0.08547452001263
  N   2.74037893583308      2.45561587566067      0.12988822260807
  C   3.39214905852124      3.64510601312158      0.12577844942306
  N   2.91614813624003      4.82065105550889      0.16120112156825
  C   4.11390559850910      5.64527889119332      0.13412062628026
  O   4.09586538262476      6.83238446001197      0.15202764321359
  N   5.31570587167309      4.84720957543875      0.08180618964441
  C   4.89343713497123      3.64305393311859      0.07462987920814
  N   5.60366636131879      2.48769419924870      0.02830342009727
  C   4.89389951898215      1.39518040030290      0.03155696400381
  N   5.58191957311336      0.21111758335728     -0.01977978015108
  C   5.02055454123687     -1.00680180519570     -0.02320156266263
  C   3.66557512359099     -1.15176988225976      0.03323617677859
  C   3.13244674187104     -2.53623756010811      0.02032090968993
  O   3.84908832070873     -3.50035264953003     -0.02728829072973
  H   1.72981404911834      2.43711361010408      0.16514378637845
  H   6.58861133759419      0.31989253903576     -0.05879419103839
  H   5.67150716386751     -1.86873923515630     -0.06909773736260
  H   2.03801214599479     -2.64132880126028      0.05436324349140
