27
Coordinates from ORCA-job 11644optt
  Br  3.37516244618604      2.17398430303644     -3.72673056948957
  C   3.53285112098380      1.31942245273462     -2.05372531077438
  C   4.02929436722340      2.00035587573271     -0.98772774215843
  N   4.06672852039371      3.43811614233971     -0.98901193276755
  C   2.83910681016651      3.77252985662938     -0.33945743668546
  N   2.79283139285769      4.21924209193482      0.90261660346202
  N   1.54525619840083      3.90862700597809      1.31155258394781
  C   0.83062382130929      3.23807864719973      0.37595415552782
  C   -0.16624504939422      2.16566891858569      0.69792630180546
  C   0.52373573948925      0.80672458036940      0.37780083552007
  C   1.89507555694791      0.65078596093884      1.09860558086210
  C   3.20422993996727      0.28055176947687      0.42947912089010
  C   3.56880043185193     -0.61336938771456     -0.51733432354440
  S   2.85663431595564     -0.32314062817461     -2.10778208523789
  C   4.26090978583587      1.35630656360028      0.39926620962487
  O   5.06781581969061      1.76609985582968      1.17454991273865
  C   1.60309912973494      3.24537600041640     -0.75417166508427
  H   4.84429291598931      3.77159371020508     -0.42535611920268
  H   1.27956284840120      4.11305230819631      2.25976121000022
  H   -1.07875244128073      2.25308803248969      0.10799223809342
  H   -0.44911317199205      2.21473854468830      1.75209246299065
  H   -0.14097254234019     -0.00797395048212      0.66796939271937
  H   0.65215119543232      0.73865550047032     -0.69939128342408
  H   2.10324594971781      1.55702213733577      1.66954881634894
  H   1.79474202780003     -0.13272189516555      1.85775571448709
  H   4.64338675299736     -0.72626479909981     -0.64927241087632
  H   1.38254611767443      2.73745040244849     -1.67591025977357
