18
Coordinates from ORCA-job 11641optt
  Br  1.09842389554735      0.07752418934625     -0.06834437277148
  C   2.94190017730595     -0.11002552053920     -0.06890112214097
  C   3.57058903455225     -1.31323147620834     -0.07198090385139
  N   2.86407708681220     -2.49701024123889     -0.07511428487443
  C   3.56630242300428     -3.56718083705907     -0.07781876703948
  N   3.02762091677633     -4.83701300931967     -0.08149284300347
  C   3.96185615689086     -5.71956478296806     -0.08388613536099
  S   5.65135701548559     -5.18232026766333     -0.08184152049886
  C   5.04962043149981     -3.54414847344100     -0.07750994578594
  N   5.75487510429804     -2.48785551148820     -0.07473066081897
  C   5.02974770143408     -1.30200827931810     -0.07189844547966
  N   5.74975730176360     -0.23196007659086     -0.06941866478925
  O   5.10012383658496      0.94974757686505     -0.06668473963779
  C   3.72779598462258      1.12233159391257     -0.06583808806681
  O   3.30566958993115      2.23503384653480     -0.06291816831822
  C   3.71684684695099     -7.11831799381991     -0.08810808606859
  C   3.55235296223260     -8.30422151254834     -0.09219413949098
  H   3.38808353430735     -9.35677922445572     -0.09531911200270
