20
Coordinates from ORCA-job 11649optt
  Br  1.15020401315664      0.17829109034303      0.03133841124996
  C   3.02023538152297      0.04603689122300      0.03228874566023
  C   3.75713687621829      1.16975926818205      0.03247768377346
  N   3.35358321010702      2.47771597350469      0.03215709139341
  C   4.43799087255041      3.32979021376725      0.03242097033679
  N   4.39005687795268      4.59450092114302      0.03226838670504
  N   5.61385925473619      5.21234507101532      0.03245204300320
  C   6.85262536500869      4.64066107223927      0.03259327058904
  O   7.87514691971956      5.27233521330338      0.03251060626129
  C   6.87061824139515      3.10413513173961      0.03278505180156
  O   7.87219948296441      2.46457318168091      0.03289987937641
  N   5.58639563639687      2.54178979440987      0.03278334659271
  C   5.21897026045585      1.17670221934205      0.03295213171071
  N   6.00788608112908      0.19063338905008      0.03334759865335
  S   5.40859729385352     -1.35070686592611      0.03345977150055
  C   3.62389149460178     -1.28265207501582      0.03283135320130
  N   2.92317383486594     -2.33710216859483      0.03279666759218
  H   2.39569211628800      2.79089117801631      0.03209205651671
  H   5.57399776874328      6.22056591130268      0.03229097346316
  H   3.47673901833363     -3.19226541072579      0.03325396061894
