20
Coordinates from ORCA-job 11656optt
  Br  3.11996465179997     -0.78363565840867      2.35974647416349
  C   3.89313457397656      0.60029205141548      1.22201563974573
  C   2.90173250611765      1.28448211810834      0.38408760306109
  N   1.52940198110087      0.99381176167009      0.39321117551489
  C   0.61761204913013      1.99262381238641      0.11090246573237
  N   -0.57492932260135      1.67532410347421     -0.30649172880012
  O   -1.26885400207847      2.85460692020058     -0.44933677781025
  C   -0.47516808249598      3.87270807520493     -0.14734926440857
  C   0.74618500815050      3.42432971986462      0.21361264964918
  O   1.77172946721463      4.22410954120304      0.67001681831060
  C   2.82289687095122      4.52524456809448     -0.16507668254525
  N   3.33332082738825      5.65421982103603     -0.27431326652580
  N   3.35028714193968      3.40673077320425     -0.88300022115682
  C   3.28752232067907      2.33243602515805     -0.32944255343767
  N   5.58138037957346      0.61697782266759     -1.85736824741251
  N   6.65214491741098      0.59843914814850     -2.03644945960782
  O   5.05503497966833      0.81593030172889      1.22732084050938
  H   1.23499568479956      0.06827710909332      0.10843359658644
  H   -0.88801780130355      4.86548855032887     -0.21505909341943
  H   2.84162584857837      6.33260343542085      0.30454003185106
