25
Coordinates from ORCA-job 11657optt
  Br  3.59910627587255     -0.84421868826546     -4.03162060621026
  C   3.88720903349286     -0.62246454941663     -2.19424457275623
  C   3.81467349204251     -1.62298806881636     -1.29482291591122
  N   3.03187361403042     -2.81637756353433     -1.53658227866529
  C   1.82370283589880     -2.46271330884535     -0.84797594493610
  N   1.02626855088758     -1.60347993044227     -1.42023547681476
  O   0.38182647179882     -0.95557718958280     -0.39429508814500
  C   0.82945448413847     -1.43116476860409      0.78091415413731
  C   0.75215082646885     -0.51692106721003      1.96155724272173
  O   1.65067632452078      0.57278536567803      1.80122827544752
  C   3.05390928606960      0.30184680390173      1.85183829204359
  C   3.67125070807526      0.05416545713142      0.49248853696007
  C   3.75001491762146      0.99926865202097     -0.46963189932009
  N   4.03433436778371      0.66996393565765     -1.76839388534359
  C   4.08793957648345     -1.29970885324049      0.12634545191638
  O   4.44704506189496     -2.14648257126251      0.92515897989713
  C   1.64418262704463     -2.48440023061109      0.56869626561726
  H   3.46842984297960     -3.61901358731594     -1.09606426396675
  H   0.98964522107060     -1.08625147503190      2.86516790058503
  H   -0.23403467180822     -0.06759180373882      2.06593901728818
  H   3.49302103615460      1.18555438230276      2.31590787982895
  H   3.26182537709030     -0.56186806286532      2.48946070288816
  H   3.55953613638920      2.04842877577279     -0.28459779770072
  H   4.12968288054240      1.39387480584894     -2.46164464255338
  H   2.21927572345681     -3.03166645953090      1.29340667299206
