20
Coordinates from ORCA-job 11663optt
  Br  0.49954884515217      0.09291282488358      0.08325055094984
  C   2.22536562434731      0.79050537494801     -0.15787599238367
  C   2.99702421117020      1.12786500115692      0.90243776905141
  N   2.43451556678191      1.55216695213047      2.14358618702848
  C   1.41335910598397      2.48467645887254      1.87334873818327
  N   0.28606343551610      2.58820373605201      2.50908754415576
  S   -0.75744711614870      3.42071533888324      1.51077587906665
  C   0.45781954470299      3.55078725651193      0.27479516435317
  O   0.23630760539103      3.82813125198646     -1.01537567720059
  C   0.48671586577919      2.69663965384744     -1.88913621562571
  N   -0.45519079554560      2.26046095007842     -2.58124711280222
  N   1.79795509557485      2.30832319198212     -2.03178815696705
  C   2.53882381688304      1.48266308215071     -1.42308207268551
  N   3.85392034111211      1.31269787537984     -1.85813033806097
  C   4.80779160489812      1.33394152990851     -1.02448207174592
  S   4.66887360563882      1.57990509996966      0.69773934513303
  N   1.59849284484171      3.14531364609660      0.69737891642799
  H   2.23451702016605      0.87317993468870      2.86505911521067
  H   -1.32518836761924      2.74152939127823     -2.36932596566592
  H   5.82773214537395      1.20538144919458     -1.37501560642272
