19
Coordinates from ORCA-job 11664optt
  Br  2.01899200102689     -0.86449860000490      0.10826260104595
  C   3.60056619671443      0.13469938374069      0.12640001220395
  C   3.71975603637248      1.31485934603155     -0.50651374717100
  N   2.95955818345826      2.02076825962367     -1.46688439678267
  C   3.85485389517317      2.77341788340502     -2.24961856370453
  N   3.77854510018623      3.18528319430172     -3.48361656801255
  S   5.20485731096486      3.53514353050298     -4.23191775187815
  N   6.50279911670544      3.06117254504032     -3.40081346419119
  C   6.34529122160714      2.63682654194117     -2.16697757512643
  N   7.11370348640717      1.73003814656722     -1.43540960187046
  C   6.27530722655823      1.27124845513237     -0.50901582405178
  C   5.01826290996939      1.92309928408603     -0.52266742810738
  C   5.06892506541286      2.77976130069091     -1.55226882568781
  C   6.26990944456071      0.02123746374064      0.28531092527804
  N   7.25000569987584     -0.70885575414894      0.58575698559124
  C   4.83331940281967     -0.48597920874697      0.72887456845174
  O   4.76537447904601     -1.43233271549958      1.45602600247296
  H   2.06384093491741      1.69384749718548     -1.79775375992601
  H   8.11613228822375     -0.30273655358940      0.22182641146609
