28
Coordinates from ORCA-job 11667optt
  Br  1.06309355112466      0.07788105218298     -0.19349039148837
  C   2.93885282784279      0.09556847505869     -0.06777282694567
  C   3.59266025688184      1.27807213413596      0.28516567113538
  N   2.86411275824845      2.41317572430112      0.63374296430716
  C   3.21876724785243      3.51478293142224      0.12591571477762
  O   2.61348660832435      4.65688975387309      0.48019341968728
  C   3.25998744159450      5.77075871911043     -0.15172409909406
  C   3.96376426071613      5.18689257126959     -1.37492401184934
  C   4.29949302654713      3.77180708872749     -0.90211560325564
  C   5.69355214784747      3.62740252523034     -0.26532702409555
  C   5.75842917434311      2.48283695307915      0.75710878463820
  C   4.99523343856955      1.25383787925138      0.34426076558303
  C   5.63591052184022      0.05827154524811      0.04931547000130
  N   5.01956741552934     -1.06460490955346     -0.28548948185401
  C   3.68598508806611     -1.05367809897005     -0.34508229577282
  C   3.04475220189172     -2.28666672356733     -0.70461790127483
  C   2.51341647429745     -3.31795242543420     -1.00116944937541
  H   3.96623346885443      6.20526334248421      0.55983422991740
  H   2.49426931808303      6.50564226814215     -0.38594367475020
  H   4.84394427677114      5.76105565402162     -1.66094210921970
  H   3.27872768373920      5.15584918746139     -2.22177931760408
  H   4.19704240310517      3.03053395466369     -1.69479401193679
  H   5.97264451739803      4.56054609443972      0.23206849814140
  H   6.41497478815723      3.46696364528364     -1.06907383841514
  H   5.33679866097739      2.83968095831337      1.70158132053538
  H   6.79839462586306      2.21858327267923      0.95024868689354
  H   6.72008624249372      0.01043136282139      0.09451623484456
  H   2.03881957304026     -4.23382493567599     -1.26070572353065
