23
Coordinates from ORCA-job 11661optt
  Br  1.04173259187505     -0.30097631793632     -1.05741868159602
  C   2.50007029018459      0.51617388503515     -0.20422645182901
  C   3.37469446447994      1.32585127949381     -0.85899423083209
  N   3.00169592313526      2.07100900524923     -1.97769474781322
  C   1.76224506744513      2.72056802539503     -1.63547140722897
  N   0.71751461185985      2.70915117846504     -2.40817629425851
  S   -0.65259257848400      2.81829010682811     -1.48370859706421
  C   0.21600429062498      2.84384840105927      0.02727046320765
  N   -0.25962878260885      2.42340031251686      1.26999709612656
  C   0.21875156493982      1.31188246605751      1.97730265444413
  N   1.26735885775707      0.60377221411002      1.95912415892229
  C   2.46213460251021      0.68197294000018      1.24561869399919
  N   3.51197423102602      1.02997210796191      1.90081457136154
  N   4.64052871402393      1.22402566319873      1.14622844083801
  C   4.61925075543925      1.67206456170853     -0.16118229473473
  N   5.53439135853290      2.30046870849955     -0.79235159489156
  C   1.52408667896510      3.00320750887951     -0.25150720457038
  H   3.76342123928301      2.62476499754356     -2.35528607530621
  H   -1.20375153448983      2.67299626382677      1.52119075572281
  H   -0.52183646842144      1.03632009448461      2.72801924942109
  H   5.41661180013241      1.52973316694958      1.71296850898862
  H   6.35338498652937      2.49187232015718     -0.22063080255256
  H   2.28395733526019      3.09163111051616      0.50911378964558
