23
Coordinates from ORCA-job 11668optt
  Br  3.78694342130884      1.60444890158072     -4.65194858597564
  C   2.06078931664084      1.99960737705751     -4.03404740549131
  C   1.85602134711679      2.58560285130861     -2.83443147375211
  N   2.79644232602394      3.04759683102742     -1.90935199146488
  C   2.09883539300106      3.47254703043403     -0.93202016132312
  O   2.45022714579696      4.25431079071716      0.07278712064386
  C   1.22531078244361      4.84646599284603      0.59553521676848
  C   0.17006818200745      4.66314263591042     -0.51277363271870
  C   0.61609384346263      3.29813097084713     -1.02618176710292
  N   0.54889707383398      2.85878705964271     -2.39653101099801
  C   -0.62942485322641      2.52002531309807     -3.03146475520248
  O   -1.71052195055233      2.71233705795369     -2.50992238458726
  C   -0.36932376518749      1.93979139905284     -4.33642907191559
  C   0.90453523501200      1.68472721415090     -4.81645153732315
  C   0.80538462234415      1.09829953987972     -6.11486583814849
  N   -0.40660770372486      0.92499605120092     -6.56714440785017
  S   -1.52470378317305      1.44439402296851     -5.48504625110382
  H   1.44923487967792      5.88220394839283      0.83273901440247
  H   0.95425411795416      4.31047539966795      1.50611801838434
  H   0.28760418869053      5.42168393158256     -1.28723035142970
  H   -0.84848867629588      4.67956713700332     -0.13621637040746
  H   0.24604638523973      2.51267221599960     -0.35743590392821
  H   1.65238247160543      0.80418632767735     -6.72068646947609
