26
Coordinates from ORCA-job 11676optt
  Br  1.07418941660000     -0.19332697378820      0.31435023519135
  C   2.94474944486077     -0.09947606226043      0.16808901231644
  C   3.71446383913180     -1.20870710674315      0.21939465405871
  N   3.09048364571900     -2.45386072836690      0.33472639848946
  C   3.74306641849370     -3.50830959043351      0.10091003330859
  O   3.08114409827963     -4.68067004072698      0.22878887460672
  C   3.54913358165417     -5.78032555039872     -0.53338095957159
  C   5.02787727493597     -6.06354069242817     -0.33547509299548
  O   5.50632186386387     -7.11546420664080     -0.65724594032252
  C   5.80259088067224     -4.90942731724723      0.24774811180869
  C   5.21642971114290     -3.58152510119032     -0.23613816972177
  C   5.91007755044551     -2.38308803548450      0.40634337635622
  C   5.16680844874996     -1.10128058724506      0.14790959055682
  C   5.83375945616168      0.04249271069463     -0.07855586590383
  C   5.24300436219305      1.35872302477796     -0.27010762968194
  N   5.84549006193124      2.44073585925933     -0.55067899276219
  S   3.49246120132234      1.52412500499144     -0.04869325004792
  H   3.37219004409022     -5.61129871449056     -1.60179970980534
  H   2.96955974739730     -6.64758819915467     -0.22653098407415
  H   6.85696563851287     -5.01513732993103     -0.00402166783853
  H   5.70748116214059     -4.96515923786552      1.33793702935278
  H   5.31961657728616     -3.51610315133138     -1.32594968736337
  H   6.94305746032849     -2.30658063673383      0.06789421792917
  H   5.93070884946141     -2.54870223028803      1.48969053421788
  H   6.91869412693870      0.02104670208826     -0.12162062652206
  H   6.84967513768634      2.29044819093742     -0.63458349158213
