26
Coordinates from ORCA-job 11675optt
  Br  1.10571025451626     -0.28506954480708      0.15279303376791
  C   2.95474902439828     -0.04490998426685      0.01863365863685
  C   3.55769202160157      1.15397539315945      0.23500190119164
  N   2.80985901193128      2.28140896510212      0.59586582707333
  C   3.13174922683680      3.40002505203416      0.11758135267777
  O   2.42466906679621      4.50120987886933      0.47272904394527
  C   2.78884610493963      5.63630070241196     -0.29656032330622
  C   3.94693414237937      5.19974236035879     -1.17933972640719
  O   4.55493676002811      5.90660009343713     -1.92657297384906
  C   4.20469497277664      3.73583464298851     -0.88956869932753
  C   5.65148471034125      3.49387360184674     -0.40382289561973
  C   5.74921328854248      2.35419731170641      0.61277723980462
  C   5.00585407588948      1.11648282616840      0.19020274473786
  N   5.70198243528854      0.07841816031530     -0.13971288083365
  C   5.06891796810985     -1.10633309768337     -0.48945971277475
  N   5.62624125696956     -2.15923128780623     -0.92636299310847
  N   3.67763278433932     -1.13318492856885     -0.31235835082806
  H   3.08852083211168      6.45357288412791      0.36023625779185
  H   1.94403279545245      5.95997417449379     -0.90797079808743
  H   4.02291878820429      3.14379945078545     -1.79115121317089
  H   6.04572494126384      4.40550525069965      0.04811707270852
  H   6.26946396444782      3.28152303303332     -1.27520014935418
  H   5.32873937350651      2.69055205576838      1.56464755715026
  H   6.79126435192295      2.08485655137088      0.77052781067073
  H   6.62934947109185     -2.01048794596827     -0.97808521188398
  H   3.22181837631396     -2.01263559957704     -0.50794757160546
