21
Coordinates from ORCA-job 11678optt
  Br  1.17730663266785     -0.16640396900740     -0.02265386336206
  C   3.04603377133752     -0.14891723792014     -0.02536825758954
  C   3.78146633831039     -1.28318034981612     -0.02465725762842
  N   3.37818639907594     -2.59899920048622     -0.02255239494723
  C   4.47717033390708     -3.26342298132545     -0.02254979364208
  O   4.56561114895606     -4.59127019274718     -0.02090729285180
  C   5.81867556510057     -5.11584442223511     -0.02048013075316
  C   5.84952666652266     -6.61226811921521     -0.01832540967137
  O   4.86167344780633     -7.28221288143855     -0.01764918633740
  N   6.90446659960872     -4.45392322731241     -0.02178698171062
  C   6.88471268384498     -3.07273033457646     -0.02395583123761
  C   5.67830910386743     -2.45297639112035     -0.02448994905656
  N   5.18202059668984     -1.17442735652375     -0.02606951817944
  C   5.87010698233224      0.07474931105761     -0.02796241109363
  N   7.13205227887413      0.19282061225170     -0.02827364688512
  N   5.05773028132152      1.19358160484232     -0.02942896178736
  C   3.77483951676097      1.08301870706938     -0.02812893258839
  H   6.87332168594898     -7.01633649101798     -0.01743331562146
  H   7.85038862605692     -2.59408873645785     -0.02521471101449
  H   7.61763760011965     -0.69371573728372     -0.02685202512743
  H   3.19976374089014      2.00554739326291     -0.02926012891481
