22
Coordinates from ORCA-job 11682optt
  Br  1.32115848943095     -1.09914544216782      0.53400557496658
  C   3.00803515174532     -0.37919423389488      0.21250769682935
  C   3.25289890653599      0.94938717800374      0.19398314684341
  N   2.35784035516432      1.98091723641657      0.41846101379260
  C   3.09052393977435      3.03861249765899      0.38335211994006
  O   2.52805897121837      4.25271926127469      0.62583090299743
  C   2.95656814368318      5.36330778477960     -0.04885059214547
  N   4.12191964859093      5.76267809818505     -0.28293049361944
  C   5.30707306604045      5.13102484273550      0.08412472567611
  C   5.53482476058219      3.81625588220880      0.21379692892815
  C   4.51099139079593      2.80468711615876      0.14063529642503
  C   4.59117873892628      1.44294362127251     -0.00113079608187
  C   5.69105991842777      0.52985002805254     -0.29667341606157
  N   6.86731532518611      0.80581307294902     -0.67683935380122
  C   5.36493573689717     -0.96196298501010     -0.19529005368677
  O   6.17656244867720     -1.83346596352411     -0.30160926917046
  N   4.01769360460454     -1.28091380704414      0.01420498113462
  H   2.10302254915142      5.96116061581888     -0.35168635146784
  H   6.13331575371808      5.82212609524087      0.19403782902783
  H   6.55102469699853      3.50476663012218      0.42275249899305
  H   6.99501826485406      1.81311549092881     -0.77149279537086
  H   3.81398013899678     -2.26968302016550      0.06081040585127
