20
Coordinates from ORCA-job 11684optt
  Br  1.01158652673483     -0.20143235223717      0.46598204488552
  C   2.86196303456317     -0.04940152669315      0.22508868953401
  C   3.46806628519462      1.16987716017880      0.28494739842191
  N   2.68173729268622      2.29887619774422      0.51973969964169
  C   3.02434548309903      3.39564077147830      0.01120988879862
  O   2.34502105553824      4.53116207892355      0.18358212188788
  C   3.13941466672350      5.60768313858563     -0.32068165633467
  O   4.04884245239761      5.03136979599277     -1.22601898298070
  C   4.26087913892043      3.72655448887918     -0.79766810347021
  C   5.40179678454977      3.58602601182043      0.20085164512696
  O   6.03766531038885      4.48244389680067      0.63619034042542
  O   5.59122421199513      2.31257864405512      0.64417736014800
  C   4.92508584472400      1.18739605318192      0.21827186633665
  N   5.72208645247126      0.23498216739041     -0.07977282700223
  C   5.33759043998444     -1.03861285400393     -0.41023575968240
  O   6.05752944889875     -1.87378515725181     -0.86824934713880
  S   3.63304713825079     -1.54502676819036     -0.07584444064406
  H   3.66094666225059      6.07867979642299      0.51531630623890
  H   2.49687804446319      6.30365380997949     -0.85115735840631
  H   4.40129372616555      3.05333464694292     -1.64572888578617
