20
Coordinates from ORCA-job 11681optt
  Br  1.70727435163132     -1.61281102413592      2.20700327206126
  C   3.05128771665456     -0.92221604585228      1.10898860278675
  C   2.88586024710970      0.24363313856918      0.42308567124301
  N   1.66555965471523      0.88169363913728      0.51299887509929
  C   1.38720518745853      2.03042174786602      0.08584868492149
  O   0.12584966637793      2.52911059197677      0.27770817205115
  C   0.16047381614616      3.78766196230423     -0.23778109288604
  N   1.25295374424199      4.18511717763972     -0.75459461554745
  C   2.11830559712068      3.09750657053332     -0.62160482451712
  N   3.30156493646072      3.06581778700289     -1.09030215467613
  C   4.12056910347668      1.98073690913006     -1.00144402302332
  C   3.98477928044151      0.76977382568138     -0.38537492871164
  O   5.07379169400895     -0.00963881781400     -0.57615724246444
  C   5.31104086130806     -1.21816046881330      0.03744758128025
  N   6.33310094674339     -1.88279678957813     -0.23048020552318
  C   4.28478514349644     -1.70548889681502      1.03821100631907
  O   4.50333345896242     -2.69028944434912      1.68701365340405
  H   -0.76127271019017      4.34534497776119     -0.16006143039257
  H   5.07071961835069      2.10738768409430     -1.50608840240707
  H   6.91081768548517     -1.41580452433858     -0.92941659901735
