20
Coordinates from ORCA-job 11689optt
  Br  1.71479935776666      0.43818212518574      1.76329608938123
  C   3.22826922290032      0.29552208933648      0.66955282388201
  C   4.02853193450072      1.33682790815916      0.38542650303522
  N   3.98238129076916      2.66155095353789      0.90185595954914
  C   5.12643797267507      3.15411424888442      0.67154362392857
  O   5.44268801299514      4.46692883958066      0.56646858603720
  C   6.16436979183083      4.57056822706420     -0.61485990415036
  O   6.50733805217919      5.59166204282537     -1.08152554792021
  O   6.38296167939226      3.33932048212492     -1.14033654945827
  C   6.12412719058676      2.34361581844138     -0.12416446766662
  C   7.46120052606862      1.67780804188390      0.29056209504322
  N   7.34406870938087      0.32780249183759     -0.30808755404092
  C   6.00699790331072      0.03530959299662     -0.37125585564379
  C   5.25410885486197      1.15055198957078     -0.33756864955076
  C   5.41066537757676     -1.29666976170294     -0.25616665336278
  O   5.99210505008932     -2.33282016325083     -0.42069311470520
  S   3.64769629473876     -1.31806080359550      0.15716038654100
  H   7.56364979066674      1.60542717295449      1.37681020215551
  H   8.29756140113588      2.23297712436121     -0.12656209187599
  H   7.98504158657421     -0.40461842019556     -0.04345588117821
