23
Coordinates from ORCA-job 11698optt
  Br  2.26957452922704     -2.84730531190139      1.45463641223998
  C   3.42891513179772     -1.61464914884704      0.63696000306021
  C   3.41260509334602     -1.35733641737642     -0.67893338018421
  N   4.42628531284536     -0.40555844145578     -1.08412236581251
  C   5.65632626953679     -0.61695030204174     -0.56254854093157
  Br  7.13671344501759     -0.38266423997941     -1.70249700485375
  C   5.71988466364685     -1.17644622375198      0.68320913081282
  N   4.46342610160514     -1.07937218892738      1.37965572844876
  C   6.42710451286364     -2.44012946408672      0.72168006280618
  N   5.95574268261255     -3.42716522329678      1.37182821213109
  C   5.71032898975802     -4.68921650471620      0.92228248200169
  O   6.02192027422412     -5.74944069557748      1.39542873227888
  C   4.66128343803415     -4.62251176086218     -0.20623846363168
  N   4.63442909639095     -3.64863152552319     -1.00290622652623
  C   3.54775151652790     -3.45516449903452     -1.89280423543858
  N   3.17078683369302     -4.19503490231941     -2.84400806425220
  N   2.90995123034912     -2.24053786335813     -1.63735455632910
  H   4.34587328926914      0.01737928559300     -1.99603546268178
  H   4.49249181643730     -1.34989627185915      2.35138341806476
  H   7.25813327797124     -2.55468773008559      0.02412677288602
  H   3.91854446486558     -5.42601174380564     -0.19031748515566
  H   3.73642924674443     -5.03622770787070     -2.90403036713779
  H   2.19949878323628     -1.97744111891613     -2.30239480179532
