20
Coordinates from ORCA-job 11696optt
  Br  1.42280143467855     -1.01855178350708      0.96955863834861
  C   3.03961300545007     -0.27030458563942      0.41653422727428
  C   3.27067713583907      1.05647322880773      0.46135180117881
  N   2.41235127963951      2.06852168442328      0.89737025232981
  C   3.08298738393490      3.15893288248845      0.73235093203289
  S   2.49997377155411      4.68134628719361      1.34627783120174
  C   3.45906102781081      5.89934189436717      0.47011339726414
  O   3.47231461126369      7.02255302372781      0.87554145722883
  C   4.09501796781087      5.58776398503522     -0.86297045383207
  N   4.94965275975267      4.71007559725195     -1.15527815608084
  O   5.32721849270690      3.91049356065265     -0.02516679908008
  C   4.43128790897355      2.92811822728508      0.17328519405791
  C   4.54215743286835      1.59076170475716      0.01109591646850
  C   5.61427916720980      0.71398393527848     -0.50348360406642
  O   6.69029473633861      1.11253097219724     -0.87862944136870
  C   5.26118879352258     -0.73014162526772     -0.51539737927642
  C   4.07415867444788     -1.17473380163302     -0.08471318190288
  H   3.81709287352414      6.25933866847266     -1.67079965991212
  H   6.02367888349109     -1.40527413236825     -0.87998584675477
  H   3.84019265918278     -2.23122972352301     -0.09505512511122
