23
Coordinates from ORCA-job 11699optt
  Br  2.32403693790661     -2.89191138863775      1.42709565568194
  C   3.51829649268265     -1.92879297919845      0.34456413408132
  C   3.50443468668183     -1.94307925186008     -0.99587357109174
  N   4.53292948874071     -1.13932651488107     -1.58940374210265
  C   5.77502592987646     -1.26132437263754     -0.99081928627865
  Br  7.26807780607879     -1.50579363014997     -2.11680372010008
  C   5.82355685382435     -1.39510833712029      0.34241253369817
  N   4.54772535803668     -1.23736654007647      0.97676860370231
  C   6.82404080434630     -2.30608060792135      1.01000046543303
  N   7.99317327571169     -2.10533042083291      1.41650753498865
  N   6.12424053605114     -3.54076940776648      1.08387377697789
  C   6.15641347886128     -4.27342309098186      0.05467672544297
  C   4.85640688366018     -4.87773583480557     -0.32116910709828
  N   4.52568485236440     -4.57455192565250     -1.50371475613577
  C   3.20381014091592     -4.57620679045060     -1.94075023633679
  N   2.51811259675524     -5.51915889706933     -2.40615635543582
  S   2.45430469894790     -2.92975398928310     -1.98895719130022
  H   4.50271707416545     -1.04045301316321     -2.59186518275734
  H   4.54900009980382     -1.27583172226408      1.98404571739737
  H   8.25293419231279     -1.12950187617912      1.28037631996868
  H   6.88918917979797     -4.16526176059953     -0.74870752852546
  H   4.17553510054409     -5.24482518788341      0.44893534598695
  H   3.03935353193370     -6.39541246058528     -2.40903613619648
