22
Coordinates from ORCA-job 11693optt
  Br  2.43655027669136     -1.05133820259029      3.45390372729014
  C   3.44510509304598     -0.80042967947446      1.88589115546376
  C   3.24172920344432      0.26101330207759      1.08451752855854
  N   2.34237996547710      1.24487232403657      1.47952353208589
  C   1.61837391205652      1.94694794063164      0.71322034955980
  S   0.44980963168203      3.06160572281487      1.45031823301418
  C   -0.28123789167407      3.36732376501989     -0.09918323326039
  C   0.31434553548541      2.76154892706924     -1.13519448536268
  C   1.48079907683541      1.99356706008164     -0.75967689989408
  C   2.41412716356247      1.53295103567521     -1.62161900294049
  C   3.69293417902478      0.97338949614715     -1.27952167763140
  C   4.09837372989263      0.45830495376948     -0.10018579474745
  C   5.51978344683289      0.03513107834784      0.01706958465257
  N   6.53029131992253      0.72574766757060     -0.29243371551263
  C   5.79257259557522     -1.37411397177709      0.51923953695930
  O   6.74577227873288     -2.01396105595004      0.19920565897021
  S   4.58481839072354     -2.09951496277953      1.60911095725226
  H   -1.14781430188696      4.00959043775091     -0.14955199218964
  H   -0.00541266913521      2.86821025110882     -2.16201866633657
  H   2.23564038099205      1.70210809760231     -2.67797257429556
  H   4.42378804590995      0.96824347963898     -2.08176110068214
  H   6.25027063680913      1.65880233322864     -0.60188112095363
