21
Coordinates from ORCA-job 11704optt
  Br  2.23183842007237     -2.77388566091506     -1.86440701749778
  C   3.58776573456999     -1.59066431388240     -1.33277018147166
  C   3.68002576751327     -1.11855447616124     -0.07655388429386
  N   4.52802681451114     -0.06344110908718      0.28284173370704
  C   5.64279052488802      0.03814241266292     -0.30606096545379
  Br  6.81829617848853      1.45518497109537      0.09645540439941
  C   6.04591258427707     -1.02664317977908     -1.25323643993612
  S   4.81872461377161     -1.21943477578004     -2.50986010856109
  C   6.93439929322674     -1.94797017118180     -0.88958260688481
  S   6.91498528780756     -3.61265185385839     -1.48283238086698
  C   5.76441224579980     -4.29266604347799     -0.24819063464063
  N   5.09240685678008     -5.33115992852302     -0.45465878293032
  N   5.84288642276485     -3.65704467797857      0.99376887547176
  C   4.87049141854992     -3.12994271358470      1.58702004693259
  O   3.57672798020094     -3.10971505242790      1.16423126109356
  C   3.02978060754174     -1.82981889849574      1.06378548510679
  N   2.16964790723167     -1.45626625623730      1.88244628895258
  H   7.60526708562163     -1.72725614332103     -0.06504417856767
  H   5.20210955526561     -5.68920686573566     -1.40114331804730
  H   5.02675825544093     -2.63777466539139      2.54611600477335
  H   1.84374644567649     -0.51823059793977      1.65367539871495
