20
Coordinates from ORCA-job 11703optt
  Br  1.13134085628740     -0.09071150185212      0.04584962316151
  C   2.99288085969301     -0.00986167145464      0.04686619869847
  C   3.69354028084481      1.16507866979834      0.04662978654428
  N   3.03500860616309      2.37801821473500      0.04564930036000
  C   3.71254120210069      3.44308296628265      0.04535307326801
  Br  2.85387332641564      5.11398604080676      0.04379902811014
  C   5.21672717296307      3.50691252492023      0.04612394688769
  O   5.86067508529294      4.50166857466586      0.04591253024921
  O   5.83742264892806      2.29493922171517      0.04699904545938
  C   5.12883992446591      1.12648884183977      0.04726593603684
  C   5.76755552440796     -0.06276313078427      0.04808516350083
  N   7.05457775362778     -0.50117350448091      0.04881723056160
  C   7.05798543789511     -1.92801094278770      0.04928665225882
  N   8.05765155638998     -2.69989070909822      0.04986869214298
  N   5.72261823096948     -2.35697564210971      0.04900485149929
  C   5.00560846827336     -1.28487845743885      0.04830289189916
  N   3.64388926541727     -1.20539736686673      0.04773976012556
  H   7.87563477681896      0.07844283801721      0.04856512541437
  H   8.93556214509788     -2.18839149206972      0.04996699843477
  H   3.11506687794759     -2.06756347383812      0.04791416538707
