26
Coordinates from ORCA-job 11706optt
  Br  0.99943901558564      0.13274101008984     -0.10958878891912
  C   2.86827377793667      0.32677451614006     -0.27021832029313
  C   3.66119797077370     -0.75876248373728     -0.35858982140996
  N   5.02876668573627     -0.74973396131818     -0.56036031460839
  C   5.63358580195932     -2.09335811939998     -0.54197095870485
  C   4.45088589990418     -3.02128435503915     -0.44671022603732
  C   3.46857748839320     -2.96232803954633     -1.57696207386841
  C   3.22535311656691     -2.17480074739553     -0.30632670184090
  N   2.41700322757384     -2.70422973576910      0.75024476721769
  C   2.81815858089501     -4.11002972591848      0.91959897685275
  C   4.31872373566309     -4.12584927286413      0.57930662141455
  C   5.84308718692553      0.36377553235479     -0.69154004653835
  N   7.09927725887803      0.35952599527782     -0.84838081735075
  S   5.09615237603269      1.96104540334407     -0.61560202945976
  C   3.34391051620237      1.69978503135678     -0.34995069736017
  O   2.66100624586574      2.68354212728252     -0.27240863207739
  H   6.29468817113267     -2.18847572138112      0.32391432976239
  H   6.22164702702689     -2.23933186659255     -1.45054153908460
  H   2.83165675466437     -3.81924494572663     -1.74710084658467
  H   3.75331637844583     -2.41468885509957     -2.46609885600500
  H   1.42379272506732     -2.59333477905846      0.58991802086765
  H   2.27776579308409     -4.77812292163520      0.24081650148905
  H   2.61912726398161     -4.44017134108770      1.93825564403514
  H   4.64672973439524     -5.10402064932168      0.22927614677320
  H   4.90788192885113     -3.86026302248762      1.45893915719609
  H   7.50299533845860     -0.57115907246716     -0.88591949546576
