22
Coordinates from ORCA-job 11719optt
  Br  0.74231008450738     -0.27436942992122      0.28304112014207
  C   2.59855191261718     -0.29772990242520      0.35685011173549
  C   3.36994234629248      0.78565840286293      0.16030205580027
  N   2.92183911585425      2.08220886500451     -0.02999106282853
  C   4.00196982587974      2.79909573464067     -0.04591461121285
  C   5.21605521097103      2.01903653629473      0.08675262027970
  C   4.82012201518523      0.69621071448595      0.22534215497117
  C   5.40080447853592     -0.62845196146496      0.44420733055892
  C   6.65613564807324     -1.16061864386743      0.26849468714415
  N   7.79541627543641     -0.59749430597485     -0.20899103947129
  C   7.78743355836312      0.77510847106767     -0.44075187366480
  N   7.39344779040499      1.49524246939446      0.51051539701190
  C   6.56435059396989      2.58576977860774      0.19512846327690
  N   6.82478794078131      3.81962570792513      0.11307889571653
  C   4.46508239828643     -1.72012172481070      0.81908187410397
  O   4.75880891858633     -2.80648405731766      1.21291004769343
  O   3.09694201508469     -1.49609548844909      0.65408189225536
  H   3.98213459976694      3.87512500446990     -0.15432459910568
  H   6.74194239391890     -2.22297173955621      0.45844594154281
  H   8.48968574810567     -1.20555215913408     -0.61502874881027
  H   7.96507084648491      1.10981944040881     -1.46672976047081
  H   7.81516628289390      3.99598828775890      0.27249910333157
