24
Coordinates from ORCA-job 11726optt
  Br  1.16234450801268     -0.43770137313993     -0.58231252279365
  C   2.96446291985450     -0.12508864708240     -0.17604407844858
  C   3.55435006615233      1.06684189521775     -0.00605000665355
  N   4.95926507516656      1.09068981317218      0.11493390915292
  C   5.47536272483199      2.44698559055235      0.08017401157129
  C   4.22545414342342      3.26099315738846      0.01140300334244
  C   3.12778021173113      2.46490992936942      0.00866485849043
  C   1.81023272230224      3.08046083337192      0.17408281421417
  N   0.72330152499426      2.63595615110518      0.61561041850569
  O   1.78972202750103      4.42895147503729     -0.16804771890305
  C   2.89346596959158      5.18243508969794     -0.18957367255800
  C   4.13112617573368      4.68272441609620     -0.05340220367149
  C   5.80140272702114      0.00025511041309      0.10520616268374
  N   7.06745112196891      0.01426520704344      0.16057466105999
  C   5.10603189370771     -1.34328554473970      0.00791003613063
  O   5.68608301176330     -2.39331927075901      0.04378540082630
  N   3.73914841974845     -1.27734484310186     -0.15326018320564
  H   6.12436018995212      2.59418595732384     -0.79153259490266
  H   6.06049004009161      2.67919007775959      0.97734889711781
  H   0.78643832539699      1.65052336663513      0.84175172028791
  H   2.66325616476194      6.22747622411308     -0.34178193267018
  H   4.99526048523645      5.32850419577526     -0.05886045678867
  H   7.45240058974766      0.95370153323477      0.22055229184201
  H   3.27980896130828     -2.17231034448400     -0.24713281462984
