23
Coordinates from ORCA-job 11720optt
  Br  1.94213282995586     -0.71779634097918      0.81504660191895
  C   3.71444666671987     -0.07331497716214      0.81443705618686
  C   4.04558938746996      1.16417488594752      1.26234528862008
  N   5.36442073763640      1.58763345070052      1.24649014804439
  C   5.56355193659223      2.88172288154972      1.90505285312429
  C   4.17053390727796      3.17971057361322      2.33260154683276
  C   3.29045284908631      2.22245605856384      1.95005535747287
  C   1.90344742206772      2.35211645373728      2.27827231292872
  C   1.55904138338487      3.44263189568621      2.98034726603797
  O   2.42500349572952      4.38385007097909      3.38886320340326
  C   3.77972029977302      4.33069288404953      3.11180038797248
  O   4.49384933671204      5.19672099384647      3.52097275142382
  S   6.49966747004941      0.99833559462356      0.18885451519246
  O   6.26768134980139      1.53562595474091     -1.11403589934026
  O   7.76955158473813      1.21707372082342      0.80521962702301
  C   6.02304960205762     -0.66310111790205      0.23158603500694
  C   4.73787137936624     -0.99980383174995      0.42400972274749
  H   5.95931231297355      3.62325600199494      1.20649094762255
  H   6.26063766692887      2.79440795232276      2.74090703518465
  H   1.15483517212397      1.63739814656669      1.98657981070071
  H   0.54839965754216      3.67125789598059      3.28626269168492
  H   6.81083325338193     -1.37189034718678      0.01904313774939
  H   4.45597029863093     -2.04215880074622      0.33579760246166
