23
Coordinates from ORCA-job 11728optt
  Br  1.12456581670889     -0.39612732401699      0.18406692920112
  C   2.97375278251783     -0.12926041282671      0.00321907924887
  C   3.57835409307619      1.08245095490374     -0.05811202832710
  N   4.97389684066498      1.13302980496895     -0.08732606989165
  C   5.48702824551679      2.48287835509337     -0.05353357970071
  C   4.22414800248669      3.27374971246310     -0.03094809493264
  C   3.11787726414533      2.47531170625384     -0.06254658164537
  C   1.81310704003499      3.10996704870638     -0.17898751549433
  O   0.75156698236375      2.59200710890659     -0.41858886429818
  C   1.93077857913330      4.59703561078212      0.00417618687463
  Br  0.31284483347064      5.54235808375351      0.10485615645607
  N   3.01015072763866      5.28306505461450      0.06045107529066
  N   4.16725763070194      4.60967359704500      0.00240641840013
  C   5.83902724421928      0.04298951191689     -0.07146565938678
  N   7.11820537635596      0.11426100042177     -0.07282668447738
  C   5.14538654835420     -1.22856553308472     -0.04747801944038
  C   3.80219553758341     -1.30086066067704     -0.00634635266660
  H   6.09855308834509      2.70350395595479     -0.93629037979845
  H   6.10213354251455      2.64769398006002      0.83911225086953
  H   4.99067315230034      5.18880525456640      0.03206285839062
  H   7.47359337380476      1.06480545801746     -0.08991569182458
  H   5.76781074783291     -2.11144142413795     -0.04752806508929
  H   3.30909255022941     -2.26333084368508      0.02954263224182
