22
Coordinates from ORCA-job 11727optt
  Br  1.07810159850256     -0.07206761344799     -0.30340677856387
  C   2.91823607741729     -0.22667790916481     -0.15996812956659
  C   3.54462250667726     -1.41244958903407     -0.02973781917524
  N   3.23676484706553     -2.78600821943022      0.06563407745595
  C   4.37464385299504     -3.40626025261076      0.20850914374709
  C   5.53549244942942     -2.48125470990246      0.21504839344197
  C   4.94247539594379     -1.30117037993980      0.06189968567445
  C   5.81348257731701     -0.20330562231942      0.05816226119814
  O   7.06763544716563     -0.70483979502465      0.21520131695028
  C   6.97613369171744     -2.15572485980052      0.32819854129296
  O   7.96130073739576     -2.78379867960055      0.48237158820747
  C   5.27352356964713      1.01635602908689     -0.06834415765195
  C   6.07133304537671      2.27856119372122     -0.07709044057332
  C   6.10197929165609      3.00127250526655     -1.41018285590683
  O   5.46930694640395      2.67413056314023     -2.37128581570429
  C   3.76675649964219      1.05024393163633     -0.19355094281361
  N   3.11008227537057      2.12615582970552     -0.31767349460521
  H   4.40822739814375     -4.48219733077134      0.30688089990890
  H   7.10616524861630      2.05747654041316      0.19881116244191
  H   5.71552687341679      2.99575256240434      0.67313080005948
  H   6.76011273785834      3.89001452985059     -1.43570505857539
  H   3.71309693224139      2.94579127582175     -0.36190237724229
