23
Coordinates from ORCA-job 11735optt
  Br  0.96396826831761     -0.04205472118551     -0.11944686568966
  C   2.82584905189394      0.00261054670976      0.01954198532053
  C   3.49706539116950      1.16660524338002      0.03147985921278
  N   4.89648857883966      1.15173325366633      0.12528554926514
  C   5.53129233230230      2.48173383121203      0.10411264708907
  C   4.30044884815563      3.31110177817915     -0.00051042039778
  C   3.15443139021487      2.57674352828650     -0.04084013497984
  N   2.04995205123279      3.37366193730916     -0.13564917934993
  C   2.53740971973900      4.58452020679857     -0.15336903539335
  N   3.91150517935448      4.60881881069144     -0.07365727693453
  C   5.52654250203413     -0.03879044145408      0.19382933296141
  O   6.87006785973677      0.11972724608591      0.26523974652340
  C   7.67243936902909     -1.01008189943979      0.33919675378155
  N   8.91534315780503     -0.92809451751275      0.37944744647552
  N   4.95858733223952     -1.17863889743222      0.19255425848987
  C   3.55897742562378     -1.27965325915207      0.11133237724915
  O   3.01190937315234     -2.35149683451868      0.11520180190760
  H   6.20351352274306      2.56658643661374     -0.75171348378664
  H   6.10579915410428      2.64321730923160      1.01780734234544
  H   1.96161289916636      5.49373627653261     -0.21777294918685
  H   4.48890006438851      5.43281242445478     -0.06986559164694
  H   7.11425438675081     -1.93838279549438      0.35678967341211
  H   9.23664214200651      0.03958453703786      0.34900616333194
