23
Coordinates from ORCA-job 11733optt
  Br  0.94622582358741     -0.33311192072728      0.31891057036211
  C   2.79457938263823     -0.09692898096851      0.18729540299261
  C   3.33255853920425      1.12579864839778      0.06067766711723
  N   4.71990056534944      1.26692657672235     -0.02455977287908
  C   5.17111488088618      2.65675860596185     -0.16270975593057
  C   3.85041442448122      3.35594238294002     -0.15387963251971
  C   2.81098233471080      2.48405761489799     -0.02790360571500
  N   1.56041894471957      3.01883987907557     -0.03825379791730
  C   1.64657940901600      4.30070010691758     -0.17217750999865
  C   0.42829212269004      5.18345266823763     -0.19739499303729
  C   0.72605562081151      6.54674277885050     -0.62711024586157
  N   0.99729051397481      7.60761532780648     -0.96110477860498
  S   3.26384791641451      4.94167377860047     -0.29939884857486
  C   5.50129874902915      0.15973527016620      0.01790513034119
  N   5.06295745080709     -1.03396477603287      0.13084115029138
  C   3.67427404308629     -1.27948106648093      0.22318474858829
  N   3.19355139060954     -2.44898635725384      0.32973572568733
  H   5.72128542281043      2.79750177606602     -1.09604513233417
  H   5.81364204303155      2.94334336370950      0.67306508925617
  H   -0.01956270420663      5.21638126733572      0.79796554197182
  H   -0.30710464934600      4.74199921456598     -0.87142468034947
  H   6.57142136971383      0.34026987905847     -0.05264642846200
  H   3.95797640598070     -3.12226603784674      0.33402815557650
