21
Coordinates from ORCA-job 11739optt
  Br  3.61356652290070      1.34724399388913     -0.15629201584912
  C   4.76525493285484     -0.11675351169003     -0.11396392900375
  C   4.29057321503144     -1.41142607013127      0.01741873174129
  N   3.06020960558955     -1.96118229482785      0.13205064085021
  C   3.27568684174915     -3.27164807677130      0.21798682443526
  C   4.64173578586206     -3.64123805216619      0.16525211214548
  C   5.29579570652171     -2.40822926670952      0.03476529057721
  N   6.58407595621876     -2.06452433020296     -0.07119907339169
  N   6.96413164115381     -0.80985859492907     -0.19575155792949
  N   6.06833847398165      0.12883525331414     -0.21598991970918
  N   7.65124229757845     -2.92376588754641     -0.06194927460227
  C   7.54274265238493     -4.21327100554930      0.04342794197630
  N   8.74800306719846     -4.87492037515095      0.03445663252555
  C   10.01660343485551     -4.32311689109119     -0.07715350874268
  O   10.99707000610229     -5.01306005014612     -0.07871373310708
  N   6.53383664492051     -5.16979901072735      0.16470897673056
  C   5.27333371645832     -4.90498387282766      0.21533442156543
  H   2.44556776688688     -3.95861417397663      0.31799375203020
  H   8.68765582313505     -5.88116150500370      0.11179521844651
  H   10.01726417785024     -3.23205799590728     -0.15994447094193
  H   4.62631173076562     -5.77646828184847      0.30576694025318
