23
Coordinates from ORCA-job 11738optt
  Br  1.15054222574900      0.12560398539148     -0.00751755439697
  C   3.02869985154965      0.02043053112152     -0.00999552450653
  C   3.73798885604175      1.17359307990852     -0.01169231421083
  N   5.11434117010556      1.17865149763611     -0.01317742923594
  C   5.68901807640102      2.53282170990008     -0.01430120248768
  C   4.45621886953362      3.37537072099368     -0.01371499682422
  C   3.35275957035222      2.56266771665234     -0.01225990258692
  N   2.26478369631549      3.35019040506304     -0.01194929685074
  N   2.60593841072559      4.64194071431957     -0.01309765088370
  C   3.93386295089862      4.67848898767156     -0.01409689454872
  C   5.90480974630146      0.03187793842078     -0.01377091031195
  N   7.17881760637193      0.02059321908012     -0.01521118355977
  C   5.12718783839550     -1.22045952502360     -0.01239163660277
  C   5.87125522896869     -2.43028972685041     -0.01349015998747
  C   6.49872262170238     -3.45143581038573     -0.01442191015572
  C   3.75962087258331     -1.20725981311492     -0.01009973363741
  Br  2.81370010567968     -2.82924481596357     -0.00702055064912
  H   6.31425299396904      2.66469207417990     -0.90161606848171
  H   6.31570468513645      2.66555323947261      0.87186508209985
  H   1.29525721196670      3.07891972037821     -0.01115167500063
  H   4.43689473330385      5.63112853317155     -0.01508841413938
  H   7.58489023435949      0.95091727904969     -0.01590081674286
  H   7.06373244358896     -4.35275166107254     -0.01589925629881
