23
Coordinates from ORCA-job 11732optt
  Br  1.55323487078534     -0.57322316725670     -0.15951771356901
  C   2.54195117002540      1.01293911775233     -0.11831169971430
  C   3.39468731874303      1.33465775788919     -1.13205816328914
  N   3.69167534741625      0.65965846038127     -2.27373424645012
  C   4.56861532653999      1.42210268062948     -2.89591661846779
  C   4.88887553272460      2.62222535533208     -2.19891305702373
  C   4.14046352984455      2.58482742121266     -1.05468840409734
  N   3.98295514800527      3.42228444988333      0.02555156928263
  C   3.11857201350964      3.05411026116010      1.02026828663156
  C   2.40986005918527      1.89498130763844      0.98039929009963
  C   4.68294773770344      4.64053594337042      0.07907151522512
  C   5.52929322820318      5.12998892252586     -0.84767221777389
  C   6.05333286336939      4.70199868886636     -2.16344887217367
  N   6.81230085575853      5.44649015378713     -2.84723206280081
  O   5.78953101848096      3.50350132392829     -2.71725105659299
  C   4.46240770679975      5.44453881529411      1.24542893644671
  C   4.30072562826368      6.14095091951765      2.20622963437627
  H   4.99555276804565      1.14283995163453     -3.84988936808860
  H   3.03186530981000      3.74455517157077      1.84294938883217
  H   1.74428279683644      1.65780821970893      1.79571268361559
  H   5.93223754918190      6.09449000796255     -0.57310591286173
  H   6.99055372528799      6.32612690674115     -2.37405611227519
  H   4.15907849547966      6.76361133047003      3.05818420066864
