19
Coordinates from ORCA-job 11742optt
  Br  1.32086175785231      0.90702163600347      0.85295549525157
  C   3.07369613675471      0.52090209103940      0.34037235429339
  C   3.71451972475686      1.16383597413858     -0.65588076121188
  N   5.07285434101901      0.99455141152935     -0.90848007960266
  C   5.58292940528182      1.84423606217643     -1.98163964029264
  C   4.36356974416948      2.63534206827540     -2.43801825984803
  C   3.27203574725155      2.16796113630375     -1.59279433546103
  N   2.04265490021485      2.58419139610708     -1.81408011641874
  N   1.05471468551605      3.00357454088183     -2.08671876015564
  O   4.32725314196305      3.44838234941828     -3.31839823398169
  N   5.94573842796808      0.49356141954649     -0.05359023849060
  C   5.54537596511225     -0.21874742027718      0.93587800351994
  C   6.50020470785533     -0.68302939297379      1.89470395549116
  N   7.23792376154564     -1.07876406973605      2.67802054598048
  S   3.87469993279517     -0.80810750140243      1.13337614343374
  O   3.53267624124176     -0.84058572163470      2.51802280145476
  O   3.76370497287238     -1.98829856196799      0.33252951943084
  H   5.97600939159201      1.24886740713776     -2.80592891315339
  H   6.36257701423760      2.50510517543427     -1.60432948023958
