26
Coordinates from ORCA-job 11749optt
  Br  0.89230516313587      0.40417330177339     -0.40196815880759
  C   2.75190000137796      0.25121351753059     -0.17707276002401
  C   3.53704647011720      1.33126996757015     -0.18460462733781
  N   3.23218211747239      2.66532492697824     -0.40270019021436
  C   4.31690365143323      3.52395714939763      0.08479490880198
  C   5.50433441525381      2.58393189351680      0.10155090386055
  C   6.82257443229821      2.85809200319481      0.78163688015739
  C   7.07452705434623      4.30163665166320      1.18987971329545
  C   7.41848176493782      4.98713031052659     -0.14296859940535
  O   6.90732598843017      4.14910830410257     -1.18448710782954
  C   6.77218211998856      2.85680334372340     -0.69839503519354
  C   4.96978697145972      1.21185003299929      0.06348233159871
  N   5.67776552400396      0.15913415722753      0.21304950290014
  C   5.12283289169550     -1.11687302020099      0.12055057051928
  N   5.79349000790883     -2.18777229339063      0.12726470616470
  S   3.35150403343535     -1.36837480928091      0.04018195038047
  H   2.28244881872495      2.95432822352940     -0.22322276988519
  H   4.10449631373927      3.90346553409364      1.09079194687639
  H   4.47714589269227      4.36792589505677     -0.58628245743633
  H   7.25874582251239      2.03176720173222      1.32541741442600
  H   7.89989392588214      4.36630308208741      1.89602109673264
  H   6.19913318480131      4.74925995587897      1.66245753281706
  H   8.50046826005745      5.08198089948655     -0.26676869300491
  H   6.96375488813189      5.96996984147284     -0.25573343085103
  H   7.16945423210509      2.06372054658517     -1.31751194164915
  H   6.78331605405837     -1.96432661725467      0.22563631310803
