23
Coordinates from ORCA-job 11740optt
  Br  0.86987326340549      0.45462793997114      0.90386827578076
  C   2.66319048384772      0.09357627397056      0.47135348387165
  C   3.45435326493980      1.12930047294835      0.12328418131487
  N   4.80086002539976      0.97958947915314     -0.21112884002423
  C   5.50567419024482      2.22893230613806     -0.55372479398380
  C   4.37223984632424      3.19226678150884     -0.38896989613151
  C   3.23271325208215      2.54882069708114     -0.00731986835803
  N   2.32072185009928      3.52248622273586      0.09893099593232
  N   2.87623719444186      4.70426648476707     -0.20406551540838
  N   4.12494851441119      4.51112620191673     -0.50127041163578
  C   5.28170524579553     -0.28085065773778     -0.16745424982298
  C   4.55488239838073     -1.38590432227435      0.17304246669005
  C   5.49276070096008     -2.47231079515305      0.06927889137866
  C   6.66539814959438     -1.93307943937394     -0.31370021970126
  O   6.55010156324988     -0.56664605355213     -0.46609610489415
  C   3.14355306936815     -1.29670660555322      0.53059931458590
  N   2.35493998929272     -2.24432234429053      0.86249623121317
  H   5.89766402037003      2.18109737440927     -1.57071859005079
  H   6.33104813122849      2.40336876424036      0.13836554165929
  H   1.34731653952831      3.46429947671997      0.35659109745652
  H   5.31079777954399     -3.51697645025057      0.25810993058612
  H   7.64065649623687     -2.33693483203271     -0.51503062932660
  H   2.83836403125450     -3.14002697534221      0.85455870886819
