24
Coordinates from ORCA-job 11750optt
  Br  1.21995247968384     -0.38842631723835      1.09487622481770
  C   2.79316579941652     -0.09110360138036      0.09378088915547
  C   3.58601403899780     -1.11987471486548     -0.27446123024200
  N   3.55345945809690     -2.43075836735532      0.20225273453776
  C   4.86934027803497     -2.76806563691887      0.82977987111875
  C   5.95336647082132     -2.87495425759789     -0.24452842725982
  C   5.67330022512048     -2.03687328704035     -1.41828636506676
  N   6.94801137079184     -1.88203981045706     -0.74876660555968
  C   7.03741215057556     -0.48480788987952     -0.26678648338676
  C   8.09399184252795      0.23402037689738     -0.97996222350889
  C   8.93979772799196      0.84676840101710     -1.56317347621437
  C   5.63359356089102      0.08658829499567     -0.46052061385742
  S   5.01947716703264      1.53787168316753      0.21744359540388
  C   3.22675664678175      1.29844815108668     -0.06139106479383
  N   2.45097717554879      2.28502318098714     -0.15802493029262
  C   4.84606063549393     -0.88469846805463     -0.95032666626891
  H   2.78098820779061     -2.57729059175684      0.84180810515984
  H   4.75833398275699     -3.73683753563706      1.31165718454025
  H   5.12077212221220     -2.03276242316463      1.60301779281414
  H   6.35164471824012     -3.87056423377573     -0.39053434733021
  H   5.61962128765708     -2.39183507426516     -2.43940116145053
  H   7.26043241454729     -0.46584321106884      0.80539218941909
  H   9.69579810854085      1.38484824037353     -2.08362651969993
  H   2.93573213044754      3.18016709193108     -0.15721847203515
