25
Coordinates from ORCA-job 11751optt
  Br  0.99005694856876     -0.20449807243388      0.05139915929923
  C   2.87063318549173     -0.07706174970565      0.04922330231185
  C   3.51105635229284      1.11753242888306      0.04845951005135
  N   4.89587348725191      1.14250343317226      0.04696848538532
  C   5.44361195232882      2.49031608090395      0.04526123760639
  C   4.21784209215042      3.34700591016018      0.04530455421934
  C   4.12355275257686      4.68717612066891      0.04284073003796
  Br  5.66010073201989      5.76842363602848      0.03691699156012
  C   2.81964689450923      5.34987419022682      0.04487646131283
  N   2.52655209712569      6.58641549286291      0.04440030711095
  N   1.75518334230177      4.43754214596628      0.04809026166976
  C   1.83617074086821      3.09034661907480      0.04940579363780
  C   3.06006265462773      2.50030264320117      0.04824576974932
  C   5.72476428194951      0.02000374342517      0.04684675258623
  N   7.00442730951861      0.04928836103007      0.04641123486396
  C   4.99270690268439     -1.23410324159911      0.04703603613103
  C   3.64588958854171     -1.27635289382738      0.04818762175846
  H   6.06438367455851      2.66234711224107     -0.84017037408765
  H   6.06537720668471      2.66427309795649      0.92965164826544
  H   3.35921060818831      7.16656505493611      0.04204481635005
  H   0.84959597275169      4.88599324254857      0.04921856929311
  H   0.90197349957382      2.55119003582846      0.05137329191679
  H   7.38669653311553      0.98963746352296      0.04646536612077
  H   5.59282465604127     -2.13215940403293      0.04628194925826
  H   3.12580653427804     -2.22556145103879      0.04826052359132
