29
Coordinates from ORCA-job 11752optt
  Br  1.19674994552921      0.02489008874476      3.42574581718053
  C   0.53595744265825     -1.72009328134806      3.08278317482156
  C   1.44588563161272     -2.76589770658869      2.86862663016590
  N   2.80510686902113     -2.55190470515623      2.91052373151767
  C   3.74763781198163     -3.60691053601101      2.59617464755996
  C   3.15103295943604     -4.67445384637750      1.68874319422882
  C   1.86751976155910     -5.18219094882626      2.35434759671354
  C   0.91583878636308     -4.04473983871054      2.61940373434998
  C   -0.45836554192027     -4.23483481934161      2.59047054745860
  C   -1.33844246163687     -3.18682734214911      2.80892448326620
  C   -0.83098178178567     -1.91899513261878      3.05334032462874
  N   4.10179686074014     -5.77258062657903      1.48297591547037
  C   3.88492246045808     -6.24341527559235      0.20689284533736
  N   3.20169631040763     -5.50722941878094     -0.57262869731617
  C   2.86345587061253     -4.30449651118549      0.20315205850443
  C   3.62587750600863     -3.13598546308218     -0.40599175204027
  O   3.89634815758752     -2.11149768799283      0.15529101470618
  H   3.09652823847869     -1.62669351625341      2.63565701283329
  H   4.06318451252156     -4.11213237058494      3.51657048010015
  H   4.63167961182736     -3.16398557689888      2.14682608060044
  H   2.14338373318565     -5.67596694514705      3.29298209704159
  H   1.39256388378620     -5.93162728770200      1.71686287202470
  H   -0.84000728611284     -5.22792039382062      2.38288767331411
  H   -2.40705080169985     -3.34802615655216      2.78300339070753
  H   -1.49211462364119     -1.07998641214261      3.22132777445133
  H   4.24856940868038     -6.43183619839722      2.23332000560636
  H   4.31957656066864     -7.18834583791276     -0.09920966552397
  H   1.80287053124159     -4.05748268051010      0.07220133596875
  H   3.89877964243089     -3.30183357248232     -1.46420432367771
