23
Coordinates from ORCA-job 11765optt
  Br  1.06739244541095     -0.18675425381378     -0.05308844552487
  C   2.94392119485430     -0.00629085567082     -0.03698320320681
  C   3.58599727338072      1.23724257631247     -0.03111116421332
  N   3.27818980882745      2.58487583601273     -0.03071904440943
  C   4.46238121884321      3.33231192253138     -0.02268613452073
  C   5.53656911354602      2.47880734619228     -0.01741536260507
  C   6.98388805041687      2.18154359360389     -0.00880005794626
  C   7.16394335088115      0.82788669766852     -0.00924231465071
  C   5.84481259242976      0.15318238359561     -0.01778376341648
  C   5.20530471250046     -1.07840008567290     -0.02213008306622
  C   3.77673089108428     -1.12104631377608     -0.03154159274150
  N   3.34978072051493     -2.44586020587068     -0.03463148303989
  C   4.40702324183669     -3.34103653884599     -0.02606026524800
  N   4.42309460432078     -4.60001382362086     -0.02373092064114
  C   5.68062366505910     -2.47269159831866     -0.01882611282410
  O   6.80191516616510     -2.89045156589778     -0.01164070843242
  C   4.95487230148969      1.20594317050116     -0.02246399787071
  H   2.35316435754474      2.97910416862661     -0.03488779888389
  H   4.39205821126428      4.40835091703973     -0.02105941462776
  H   7.78496987765938      2.90470405847355     -0.00320977014604
  H   8.11859458558583      0.32537484674269     -0.00409312047698
  H   2.37804914821206     -2.70864550786977     -0.03880816554146
  H   3.48672346817223     -5.00413676794328     -0.02908707596621
