30
Coordinates from ORCA-job 11769optt
  Br  1.37553333156781      0.10614214873963     -0.35251487052091
  C   3.26335514076722      0.07147228038830     -0.15970600885244
  C   3.90346675829898     -1.09425862131160      0.16612734107294
  N   3.15103041390092     -2.20399575187445      0.52690819993870
  C   3.04979244436009     -3.42685131259651     -0.28208432033655
  C   4.27779392820858     -4.30967737533700     -0.21340798774931
  C   5.50067075617275     -3.53492647076358     -0.69026069771127
  C   5.99644427655509     -2.50883820193023      0.32450480419026
  C   6.12596308889302     -3.13088644859253      1.72322979063982
  C   4.92464323924743     -3.97729077120668      2.14882992191802
  N   4.44861014601181     -4.89751699727554      1.11444938621929
  N   5.28723041663170     -1.20580491235921      0.27466172848678
  C   6.12159609721231     -0.08945252368739      0.45632877694107
  N   7.29052764149708     -0.08694758451115      0.94122872376399
  S   5.61777943337412      1.50061685996888     -0.11490621954459
  C   3.87508842565785      1.35958994435979     -0.40865393639145
  O   3.30020952977966      2.34895278283343     -0.78279511575505
  H   2.21536111200232     -1.88924220851537      0.74191966142211
  H   2.84074862067539     -3.17803358198428     -1.32922891466510
  H   2.19884289634436     -3.97748563550418      0.11585492602069
  H   4.09810932577619     -5.13771232780158     -0.90289508532900
  H   5.31119388181242     -3.04867179498014     -1.65047550284642
  H   6.32335145236149     -4.23848887012972     -0.84243807982883
  H   6.99592736277577     -2.24406362830505     -0.01383887162259
  H   6.31499831033869     -2.35079075381957      2.46392594882696
  H   7.01407810034634     -3.77130095059372      1.69496438343652
  H   4.10231875498942     -3.33153844896534      2.44522082628151
  H   5.19519111940620     -4.57392831437656      3.02058208861387
  H   5.08106139517837     -5.68621809579810      1.04509930233353
  H   7.61608259985655     -0.98785243407050      1.27236980104745
