31
Coordinates from ORCA-job 11764optt
  Br  1.22515168889747     -1.16899215165380     -0.71244981589985
  C   2.50922722132373      0.01556343083420     -0.04744663311213
  C   2.16871688563278      1.01516972785115      0.77290208204218
  N   0.90170792360869      1.40925496668865      1.16352471436164
  C   0.23959985588386      2.32300406290136      0.21375186221786
  C   0.85166496723862      3.71937933485419      0.01574415184343
  C   1.06599534331584      4.54549540223595      1.29172866581477
  C   2.05455547970499      5.62446379168183      0.84420814647915
  C   3.08545321035338      4.82280667638419      0.05485588957821
  C   2.20778466897446      3.82969697525538     -0.74324873420234
  O   3.95456607719787      4.27376816171381      1.04636294857965
  C   4.89143650739634      3.32432670648812      0.63657374893618
  C   4.26218657702901      1.95984031269623      0.47740507803488
  O   3.15242221010341      1.85539137894207      1.23894477587884
  N   4.66962778797440      1.08519262785171     -0.33729857069817
  C   3.91244173712037     -0.10553883065000     -0.48259414329070
  N   4.37075338851040     -1.15800019730408     -1.00934448527000
  H   0.93177439173755      1.81248615430640      2.09285749937212
  H   -0.78539044826482      2.44000017266562      0.56944261660489
  H   0.18561108660510      1.80019582459905     -0.74323794738806
  H   0.10958689627731      4.25193801103868     -0.58785959890440
  H   1.54497571079958      3.94086082117304      2.06573888638934
  H   0.13476595914477      4.94750927907932      1.69141753898060
  H   2.52048320738922      6.17170581759092      1.66168310441287
  H   1.56027720873461      6.33708092435957      0.17920689941236
  H   3.69241258082145      5.43650360637574     -0.61874033825670
  H   2.68454295446839      2.87236962261656     -0.94349014291050
  H   2.03903090499153      4.26915657694719     -1.72751702300354
  H   5.66084258988659      3.27943326720995      1.40969789845159
  H   5.37368558173696      3.57656770125693     -0.31325585370126
  H   5.34510984540611     -1.00963015598996     -1.26956322075295
