31
Coordinates from ORCA-job 11760optt
  Br  1.05818269855616      0.69967168774880      0.16298683675244
  C   2.90238191978261      0.39540456619369     -0.00375731749038
  C   3.37861388875530     -0.81134034116667     -0.41782099283913
  N   2.51771001411180     -1.87254243470054     -0.71475695603861
  C   1.91884161662367     -2.60573357558110      0.39952578691247
  C   2.84178644033534     -3.69415858667256      0.95169592848959
  C   4.19395966621885     -3.15193427854843      1.45070029702867
  C   5.34028277426963     -3.32204872647827      0.44822399810997
  C   5.35748487408105     -2.38306299228031     -0.79485734465526
  C   4.81275534274063     -1.00901039354064     -0.55050926580395
  C   5.61610536693790      0.04626571795765     -0.31785354671812
  N   5.11783748725819      1.25910523726325      0.05263778031855
  C   3.76795741186909      1.53475063658771      0.28491693331856
  N   3.32409882501075      2.66459217836484      0.67950447128596
  N   5.31417209626177     -4.71410101324331      0.02415040649908
  C   4.08746835129655     -5.20889222649714     -0.36329960804818
  N   2.94428101080864     -4.78140319780394     -0.01696756767555
  H   2.92506120236881     -2.52965378948144     -1.36525373911208
  H   0.99189387141205     -3.06791920469267      0.05876526474599
  H   1.67582728298600     -1.89424301642627      1.18786790192571
  H   2.31198205039444     -4.12031052061790      1.81021619652028
  H   4.48775098894499     -3.71577919812710      2.33691188238021
  H   4.10642177257680     -2.10745452728779      1.75295103582143
  H   6.27023493531747     -3.15063546889666      0.99362934462007
  H   4.81887468326691     -2.87864222663297     -1.60551947714301
  H   6.39228624967497     -2.30378749974689     -1.13583356924221
  H   6.69408295308782     -0.01712059176866     -0.38943062528539
  H   5.75899816793407      2.02199189568707      0.19929753813381
  H   4.07025457693763      3.34409491283507      0.80802042896204
  H   6.09838141147548     -5.03783325564750     -0.51974418161765
  H   4.13803006870456     -6.07426976679931     -1.02239784015530
