29
Coordinates from ORCA-job 11766optt
  Br  1.84899487576601      1.47030616859714     -0.05463903302934
  C   3.50057954012573      0.61910597041913     -0.43083146496189
  C   3.52153409270511     -0.75020697234611     -0.74598119651866
  N   2.25332455099038     -1.40495072479517     -0.86341091057386
  C   1.80844642934525     -2.36776572586739      0.17535156666582
  C   2.88605723372411     -3.44061117791235      0.22305352433282
  C   3.02835631543867     -4.93931307958847      0.47456606902869
  C   4.55379453225413     -5.02981201397566      0.11803822371388
  C   5.09340915837628     -3.54722169481746      0.24970534504034
  C   5.22871411577212     -2.74559767054288     -1.11833781273491
  C   4.83096920218384     -1.27979744888876     -0.93900409429205
  N   5.89924303993845     -0.47938459635345     -0.88144742521610
  C   5.72201409583578      0.80115959832025     -0.61049754917322
  N   4.56167409087930      1.38870178757450     -0.35675299569665
  N   4.01787983918752     -2.98398950722958      1.03482585311081
  C   6.38009762013043     -3.50154879986596      0.95553572466598
  N   7.39788500760337     -3.47626967304041      1.48092690402523
  H   2.17965990068939     -1.84630165266811     -1.77187700344091
  H   0.83769341705767     -2.74670955520055     -0.13968494872357
  H   1.68189043886747     -1.84394141086083      1.12403825944699
  H   3.14785728526178     -3.42948452012592     -0.83650764284829
  H   2.42637012414964     -5.55573661565990     -0.19140143868021
  H   2.84384901327497     -5.21669529829673      1.50971910937203
  H   4.70565244939170     -5.39613530128755     -0.89708998881956
  H   5.09682721240508     -5.68022091059931      0.79899929400259
  H   4.64978211671188     -3.22878295850443     -1.90254215463408
  H   6.26767569989761     -2.74064116844364     -1.43828658984718
  H   6.60609149866737      1.42741075463504     -0.58287504500891
  H   4.08767710336885     -1.98256580267537      1.15140742079423
