26
Coordinates from ORCA-job 11773optt
  Br  0.90929440811898      0.20786386568304      0.00692519846822
  C   2.77958475279508      0.19513550031862      0.02439496439985
  C   3.51281934534743      1.32912843267163      0.04624978967730
  N   4.88517762782564      1.29175307910109      0.05188957518699
  C   5.51259774496874      2.61115078610312      0.06925723787122
  C   4.29509117964189      3.47811377254066      0.08188287124262
  C   3.89145330542659      4.77547426810180      0.11022071776685
  C   2.45748885698674      4.75828924252670      0.11668193287010
  C   1.58146853079142      5.97343842287695      0.11597581223183
  C   1.76408481179118      6.72284856354497     -1.18463948969156
  O   2.20218167649911      7.83478695836449     -1.26691442785695
  C   2.04058925449559      3.45497004588132      0.08270935153425
  N   3.17294108833033      2.67327730920276      0.06465181670948
  N   5.59644324152631      0.17158813512571      0.03787852732199
  C   4.94396968275781     -0.93544774605743      0.02145383846475
  C   3.47834544836108     -1.08087383389058      0.01486118022734
  N   2.85737472210402     -2.19699645369122      0.00120636977939
  H   6.13321222748618      2.74522922009041     -0.81816495374126
  H   6.13472304288913      2.72087354371833      0.95879930009137
  H   4.51740155633990      5.65297826531946      0.12434442037166
  H   1.82149497018723      6.64694124142069      0.93908637273649
  H   0.53429191913505      5.67137836118918      0.19643767710760
  H   1.48882085600624      6.15064012701561     -2.09255727678780
  H   1.05500709717482      3.02760511878350      0.07909338658503
  H   5.54645789556860     -1.83681532412264      0.01180208186837
  H   3.51268475744486     -2.97633090181819     -0.00352627443514
