28
Coordinates from ORCA-job 11774optt
  Br  0.98437847717423     -0.53421995631878      0.19080027803476
  C   2.83041372983351     -0.19073087992601      0.03401290964926
  C   3.69366025755540     -1.23923812969866     -0.06697457817634
  N   3.36140462978454     -2.55695485206533     -0.03960793580442
  C   4.45351008051471     -3.39451981105246     -0.49461418300688
  C   5.71008120948680     -2.52989191117545     -0.20219218638437
  C   6.34062530669191     -2.93532810772155      1.14328102490989
  C   7.26687498664653     -4.11197066004008      0.77416643926727
  C   7.34430167798810     -4.08755884269090     -0.76583706274682
  N   6.81514334578894     -2.76604675763879     -1.11698243000480
  C   5.13154892883085     -1.12217783805673     -0.19744307871837
  C   5.76180120587478      0.06926840871482     -0.23334502388166
  S   4.95127686799801      1.59904835195610     -0.15390786214323
  C   3.21149206495893      1.20207064539215      0.01994845030746
  O   2.45644434072214      2.13734745903164      0.10592159819744
  C   7.24586459507004      0.20473499019419     -0.31211498013469
  O   7.78230177595427      1.27990496689796     -0.34558186586057
  H   2.39509066156285     -2.82840039181212     -0.13571092512458
  H   4.38498454815292     -3.59685524741753     -1.57043004701463
  H   4.46985862874949     -4.34495898938570      0.03936646466224
  H   5.57980276761440     -3.18891799994290      1.88083489547434
  H   6.91507374932640     -2.09590253724374      1.53324378836481
  H   6.87603336115739     -5.06455697695745      1.12814115537059
  H   8.25050678254164     -3.98000453834631      1.22010321518707
  H   6.73875613162915     -4.89978308849898     -1.18668193779054
  H   8.35939292894525     -4.19981754109004     -1.14310086262673
  H   6.53289725704346     -2.69747360781506     -2.08845118209852
  H   7.81047970240324     -0.73606615729226     -0.33684407790796
