30
Coordinates from ORCA-job 11772optt
  Br  1.11946288519582      0.05627306562593     -0.61972414072109
  C   2.97158718836745      0.05943119402162     -0.32084625613305
  C   3.66397331492790      1.23065686159459     -0.23858852939598
  N   3.22473290523464      2.50996235518776     -0.38282479656880
  C   4.20731897047130      3.45357057595520      0.14316869262637
  C   5.55340625777367      2.68317453010321      0.04294758298746
  C   6.49864793225530      3.00414750750930      1.20236063341711
  C   6.96023854529867      4.45883233523004      1.17982989985250
  C   7.64851303230642      4.80411682106345     -0.14810706337097
  C   6.73202733497557      4.45189970434240     -1.29801440715290
  O   6.36590972961301      5.26065321160972     -2.11191762244082
  C   6.24034143358878      3.01952167438634     -1.30200503541319
  C   5.06975432697084      1.25208693135706      0.03600777094780
  C   5.71086907209370      0.08289883914905      0.20393813467199
  N   5.01609846102431     -1.08521917217137      0.10837455246135
  C   3.64274700060797     -1.20932696833639     -0.15265918640894
  O   3.13997121585618     -2.31405175743752     -0.20583815757823
  H   2.23643935775356      2.70727459454714     -0.35751159323748
  H   3.99318147169510      3.70178651955472      1.18909987960917
  H   4.20994380351983      4.37455332000737     -0.44131748240310
  H   7.37384452385869      2.34894289008415      1.13410932232622
  H   6.00012931499757      2.77252008636519      2.14568111110594
  H   7.64077500308639      4.65192301503574      2.00962354504337
  H   6.10025779490225      5.12087926539094      1.31868233987558
  H   8.56258827021112      4.20836464514855     -0.24056663182327
  H   7.91029706256356      5.85849596787768     -0.21245150462341
  H   7.09710284450709      2.35045232361171     -1.42840468395706
  H   5.55284077010578      2.87396802126659     -2.13537880115842
  H   6.76837917196563     -0.00256542675660      0.41695376310139
  H   5.48262100427180     -1.97022293132360      0.23937866436048
