30
Coordinates from ORCA-job 11778optt
  Br  1.21976245634353     -0.05094586516242     -0.56856578371434
  C   3.03395836024573     -0.32484247428840     -0.04205937964619
  C   3.72470750149073     -1.40012758815715     -0.55169492189080
  N   3.10631785359494     -2.12754751563579     -1.58148329959732
  C   2.88426563925742     -3.59550862410895     -1.61279373101563
  C   4.05785334604762     -4.10565018930130     -0.82345363547694
  C   4.43757407102804     -5.42413498923529     -0.17228966952553
  C   5.39891481124954     -4.92123953893786      0.95021571222294
  C   6.37686751597120     -3.75003203340270      0.58470043167172
  N   5.96058255986929     -2.77029211234611     -0.45453106060041
  C   5.32646944373981     -3.55775289609008     -1.48427691530519
  C   5.14712055282199     -1.64767676325449     -0.08296263777633
  C   5.76932631704413     -0.74738668896852      0.69588774545135
  S   5.15637260946461      0.69238237550051      1.38699977333547
  C   3.46556720536160      0.70201992278197      0.89900637168340
  N   2.67342986895824      1.59128292863842      1.34929276921698
  H   2.30070433628138     -1.63047964998930     -1.92831513214309
  H   2.87136227045330     -3.91052836781397     -2.65826845798006
  H   1.92351162741853     -3.84862610853827     -1.15390344512709
  H   3.90723809097210     -3.50910473093808      0.07757597587564
  H   4.92978905879789     -6.10787735340413     -0.86611355348670
  H   3.59980774522030     -5.95290255318467      0.28503268661813
  H   6.00891520229771     -5.73475293362346      1.34701377745997
  H   4.75681570095971     -4.58605792559326      1.76796434419197
  H   7.30149784368091     -4.18425811299188      0.19897122930109
  H   6.63039791254298     -3.21164495525078      1.49693341869999
  H   6.00494070832076     -4.36180084731082     -1.77530314739719
  H   5.12442285619860     -2.95113904142827     -2.36282967663802
  H   6.81156718643610     -0.91601140315823      0.93440645345967
  H   3.13093934793126      2.21763603519332      2.00784375813250
