28
Coordinates from ORCA-job 11788optt
  Br  1.04124171056995     -0.23849223116035      0.08686705625521
  C   2.92744480378235     -0.09800239775640      0.03577600845982
  C   3.54597168765309      1.13325079067234      0.28718591665106
  N   2.84626464191455      2.26178306763890      0.56915577634659
  C   3.45947302741666      3.56549518382974      0.70957030918159
  C   4.84118293191574      3.64461388129551      0.06936328737769
  C   5.56891350273797      4.95850483340009      0.41054884629055
  C   6.58930057654515      5.18694788275545     -0.71618220352170
  C   5.94082435258638      4.58237721319047     -1.94296553522696
  O   6.21264942818805      4.75704106130276     -3.09086597408409
  C   4.78338281861481      3.66714967542398     -1.44701791509495
  O   3.99510903253675      3.12746810849775     -2.16282093124544
  C   5.67530859335109      2.42483408256691      0.51296337728086
  C   4.94911364850140      1.14233810431372      0.23563712792346
  C   5.60827457776969     -0.03170889140300     -0.08200810484984
  N   5.01446142392519     -1.19703286805375     -0.31636392379877
  C   3.68754052163452     -1.21498043949038     -0.25117174680982
  H   1.85079129769818      2.22385641355801      0.42464906516737
  H   3.56279337685089      3.83151878031501      1.76832544152391
  H   2.80459030819754      4.30694852686631      0.24752819827270
  H   6.03096964992427      4.91019966449919      1.39646861571975
  H   4.84779917585813      5.77972188435190      0.42440990611632
  H   7.51991630432435      4.64495539641348     -0.52712487153664
  H   6.84826228366571      6.22984135526593     -0.88723372582064
  H   5.86447228211313      2.54130541398554      1.58555674144121
  H   6.65062212736923      2.41238615220552      0.01949202461204
  H   6.69291705406573     -0.02447280392605     -0.14731718716480
  H   3.19440886028943     -2.16184784055862     -0.43942557946649
