25
Coordinates from ORCA-job 11781optt
  Br  1.38057433858686     -0.47154561975716      0.56805066721506
  C   3.25202970313606     -0.30309799776742      0.44203687371369
  C   3.99067965437987     -1.39681770361670      0.14365555626618
  N   3.59663253939174     -2.67853726687055     -0.14432842161880
  C   4.66107331857397     -3.39800315199851     -0.86409527376744
  C   5.93945637418949     -2.73238149893330     -0.31091106294852
  C   6.42210033167850     -3.50536062676260      0.93577565084257
  C   7.47656379362171     -2.80652866174741      1.65989779710565
  C   8.34315096757369     -2.21143450887404      2.23341999254980
  N   7.04853212082478     -2.62949469055931     -1.25212194725113
  C   7.70629859176477     -1.56043357325383     -1.25058234419169
  O   7.43976267635094     -0.39305718322645     -0.56110178276783
  C   6.16632698372790     -0.29083368310427     -0.09123711537811
  S   5.55858753023620      1.30610643081726      0.18987038146512
  C   3.82229952155372      1.01870606501283      0.64835927685390
  N   3.14217719648872      2.00775063115609      1.05050257038788
  C   5.41609298104321     -1.37569159863082      0.01782005473202
  H   2.62791776820066     -2.83956510278799     -0.37666197912148
  H   4.60285936276099     -3.23384523903016     -1.94356636820564
  H   4.61585709255066     -4.46607306795141     -0.65655772016318
  H   6.78492821221505     -4.48251496088018      0.60767298807049
  H   5.56308825842039     -3.66305203098078      1.59314867970262
  H   9.10942017161143     -1.68552050066649      2.75133281476299
  H   8.59823690469909     -1.42889076232713     -1.85052539590065
  H   3.67335360641951      2.87211630274035      1.11614610764652
