27
Coordinates from ORCA-job 11786optt
  Br  1.17982100834138     -0.08775030540052      0.51710518185822
  C   2.95239877354930     -0.00217391614426     -0.10098460617219
  C   3.64497600951807      1.15866601088231     -0.12788712152728
  N   5.00617962236731      1.17459591527035     -0.56250415324048
  C   6.22047871837811      1.68567589653430      0.21329548245492
  C   6.33380363329349      3.18361600355498      0.61443371695984
  C   5.06102841254754      3.84380320916847      0.19754147235201
  C   4.26277512780897      3.23334800302504      1.35266302018237
  C   5.04919350775082      3.78467213730157      2.52208993493470
  O   6.35558031965269      3.38149231397448      2.05113550174618
  O   2.88174543217318      3.24332372692150      1.09319111769267
  C   2.74470251843153      2.43815392886610     -0.00166403125766
  O   1.95362129932204      2.67331021117906     -0.85003031169604
  C   5.40743617484066      0.04710108639698     -1.26546765255281
  C   4.72122197156319     -1.09889485808837     -1.36244825336471
  C   3.47997770894021     -1.28219837856809     -0.63321528699334
  O   2.89673540673123     -2.33739875478387     -0.52565785510941
  H   7.05574087211485      1.44936746370012     -0.43966637092192
  H   6.32637660783356      1.07096220661366      1.11078798861050
  H   7.26233606628345      3.60119720874747      0.23208919196884
  H   4.72388397112147      3.56083141904938     -0.79601677156999
  H   5.07903548382376      4.93002340550661      0.28004360002194
  H   4.50697903953032      2.18126963262078      1.46943176575403
  H   4.86047060932909      3.28785132936959      3.47052999905405
  H   4.99292857836253      4.86810983745954      2.64035738120159
  H   6.38301211115258      0.13689146141740     -1.72460279656033
  H   5.10456101523859     -1.92584619457459     -1.94255014382569
