26
Coordinates from ORCA-job 11780optt
  Br  0.92151131685067      1.27100692366996      0.64003581057207
  C   2.70614815407947      0.83764527671611      0.19783121901334
  C   3.67540743984863      1.78073983513020      0.04722740890483
  N   4.99294085184617      1.41982270524748     -0.14040821690283
  C   5.87315166925275      2.59426518393779     -0.12754206580572
  C   4.88045956634646      3.73575327327509     -0.11090202186208
  C   5.19762794890266      5.02030177307995     -0.20374457948319
  C   4.27023975047625      6.19476190131674     -0.13742166995817
  C   2.89713423480636      5.83453285455904      0.42114072828967
  N   2.14389610083559      4.99597797400526     -0.49400631576741
  C   2.45404106553007      3.79016737981048     -0.62018036502504
  N   3.58109815640980      3.16011644279562     -0.02027454262966
  S   5.56372667680200     -0.04972113629362      0.39243272145091
  O   5.68814989404733     -0.02392360904792      1.81608847569884
  O   6.70986694346198     -0.36889583347062     -0.39881477120660
  C   4.13415956297974     -0.98148217646183     -0.04913251233260
  N   2.96655033720812     -0.48294640583167     -0.00434965418792
  H   6.51121809179905      2.60328971255384     -1.00955900922034
  H   6.49479253384856      2.58670396958433      0.77042409191009
  H   6.25551068461371      5.23324565971579     -0.31100738945871
  H   4.72436261463630      6.96541310256432      0.49077617077867
  H   4.14408580336958      6.63991519188264     -1.12814189304050
  H   2.32154566761183      6.74301996238479      0.58808317099662
  H   3.01947477738151      5.32680633639939      1.38452357568684
  H   1.87011644518388      3.12862113192369     -1.25194406910729
  H   4.31178371187146     -2.02913742944689     -0.26613429731384
