26
Coordinates from ORCA-job 11795optt
  Br  1.11406305565912     -0.19013283461167      0.34531799441082
  C   2.98156468172305     -0.10202557039315      0.15689161842184
  C   3.66353411243878     -1.12793835404056     -0.41733821924109
  N   3.06976005667782     -2.26630902564176     -0.97660716214942
  C   3.07888803473491     -3.48608572380189     -0.15440786561865
  C   4.47325032390979     -3.96390397662809     -0.00977556759082
  C   5.61077220292800     -3.42307795001110     -0.42787925942053
  C   5.80756010918916     -2.12880215205281     -1.14401942493162
  N   5.03332113863993     -1.05635762865775     -0.52550390431633
  N   5.73939977305694     -0.02448231402181     -0.05844756718349
  C   5.11791660829324      0.96278625259907      0.47823774328631
  C   3.66650398594335      1.07779885787544      0.64658061255291
  N   3.05542126285819      2.06506009018326      1.18021658252603
  N   6.62759742375204     -4.30849531505148     -0.05362107982540
  C   6.07345482844527     -5.35613344208594      0.66650954314066
  N   6.56668144584365     -6.35635318956152      1.24953355721828
  O   4.71965792571888     -5.13872311095566      0.65600457490690
  H   2.11539894772062     -2.04355719350022     -1.22911555056791
  H   2.48027209413070     -4.23713213112463     -0.67321067669865
  H   2.62837695588813     -3.32403776082603      0.83296097745033
  H   5.52394226746883     -2.21826473935710     -2.19396554551044
  H   6.84414648252238     -1.80595753261144     -1.08785844866885
  H   5.74620090249564      1.77290536633785      0.83211338368903
  H   3.71532925100302      2.78415412513257      1.47089897256749
  H   7.60297208605479     -4.07531408849644      0.00701584511696
  H   7.57501404290369     -6.39362065869710      1.15346886643565
