28
Coordinates from ORCA-job 11792optt
  Br  1.13923119906549      0.43903106383253     -0.96350036347610
  C   2.92325716800275      0.17340010912805     -0.42162901264998
  C   3.73952982792411      1.24231822871807     -0.28105518698636
  N   3.55250357441241      2.57941559176955     -0.52796767984581
  C   4.85140500226413      3.26600736121096     -0.72266768865524
  C   5.84265232507154      2.38838155557064      0.08058162398909
  C   7.20980225224661      1.94844028520013     -0.47106727390854
  C   7.33304104160412      0.44339696768449     -0.07401484395987
  C   5.88046290015619      0.01372567095392     -0.00265511052218
  S   5.16772229244420     -1.54395290574977     -0.18234548528226
  C   3.37414646437641     -1.19890228843509     -0.20852491422335
  N   2.57382459945601     -2.17683429727995     -0.14600512568721
  C   5.10947466696876      1.09020201575257      0.07642276137673
  O   6.08349467127609      2.91149844484823      1.38233273070118
  C   4.95779922634874      3.04259465809985      2.21537494037114
  C   5.43563492313029      3.52648681409220      3.56287337678833
  O   4.69412141521171      3.94440836450263      4.40396519697108
  H   2.74470825768356      2.86148514704472     -1.06352844644406
  H   4.80985650261862      4.28685305619553     -0.34564028072754
  H   5.12519747271043      3.28486302284021     -1.78082898819873
  H   8.01834871880308      2.55987127856719     -0.07449073029025
  H   7.20925520074912      2.02529369184200     -1.55878470803271
  H   7.82785609144937      0.31747697121391      0.89107828211347
  H   7.89279106644039     -0.13298651951203     -0.81049332044492
  H   3.03824315691561     -3.07494379222303     -0.03569312969981
  H   4.44868792509723      2.07990178474602      2.35783938982918
  H   4.22232341354947      3.75204981413259      1.82413955247127
  H   6.52862864402348      3.45851790525386      3.72228443442346
