29
Coordinates from ORCA-job 11793optt
  Br  1.37872488519937      0.22070658649484     -0.25455899598765
  C   3.26427608283537      0.04941366697657     -0.14321621352929
  C   3.83254821742889     -1.13108918915213      0.21867919229299
  N   3.11138448410260     -2.24857517721685      0.64061082676445
  C   2.99897957967002     -3.42960009327774     -0.22456441702594
  C   4.25631009943622     -4.28028396348852     -0.23214203233611
  C   5.47049523380519     -3.47694409445966     -0.68868126987567
  C   5.93991638524183     -2.45813239852864      0.34794167619662
  N   5.21841573732624     -1.18523741631134      0.29251896495631
  C   5.97462305903110      0.00461719148569      0.31266258569472
  N   7.17225595550266      0.14801481170711      0.71222164855036
  C   5.24337427432504      1.15524365936428     -0.22443341642332
  N   3.97907346534555      1.17246745231628     -0.42336842375038
  C   5.96423899534858     -3.02078755076109      1.78011318548021
  O   6.75286132782804     -2.57888421807037      2.57394372724356
  C   4.96491372473972     -4.10108990513717      2.15006549761337
  N   4.48458099479313     -4.94024254131849      1.05338404461429
  H   2.18748920604166     -1.94435976255764      0.91788265656949
  H   2.75415494295904     -3.13856211432155     -1.25326492468771
  H   2.17848163867014     -4.02852030933801      0.16811128986385
  H   4.08032831222831     -5.07827954987395     -0.95689977531344
  H   5.28200450270821     -2.96683085444744     -1.63699853328209
  H   6.29763076650773     -4.17156681507714     -0.85532871002794
  H   6.97276508875433     -2.19654867241888      0.12097274356425
  H   7.54771913371250     -0.66972394515639      1.18730226843410
  H   5.83068691696283      2.04305513745037     -0.42844776174542
  H   4.12516910269676     -3.58675282584046      2.62198332802946
  H   5.42497971640751     -4.72976086417804      2.91183999922006
  H   5.12261817039132     -5.71374624486361      0.91767083889684
