27
Coordinates from ORCA-job 11791optt
  Br  1.01563678233360     -0.09024332870221      0.19645848057334
  C   2.90563312309056     -0.05316870372634      0.09217545469286
  C   3.64462045575529     -1.23535030541764      0.14664290218230
  N   3.05776370830642     -2.48780523010339      0.29297661399074
  C   3.30361575160698     -3.50803788117488     -0.72212196331925
  C   4.61742729785746     -4.27012114706006     -0.52073268518618
  C   5.84747283950040     -3.39725586414899     -0.71433518457078
  C   5.93532845140595     -2.29980968080310      0.34851010107948
  C   5.65538793712077     -2.84046122534773      1.75953307791187
  O   5.91683998598477     -2.19738777114049      2.73004402287347
  C   5.02680821394690     -4.24810932827798      1.93942683887092
  O   4.89797890102612     -4.72853570039031      3.03523657757864
  N   4.68277579253993     -4.89205495795709      0.78889724903374
  C   5.03965457804508     -1.10684114251114      0.10943730689686
  C   5.57906850203995      0.16309814086105     -0.03154791215729
  N   4.86469553196484      1.28064250964264     -0.11705973949499
  C   3.54780111773619      1.16852420086721     -0.03815081396015
  H   2.07663032560403     -2.41757458808707      0.52101406333286
  H   3.29299822520409     -3.07954028499804     -1.73122885663049
  H   2.48127703670145     -4.22072531811742     -0.65628582435940
  H   4.64117438872191     -5.07092328831755     -1.26243966999424
  H   5.83697482946500     -2.95067496530801     -1.70964711724380
  H   6.72948615944665     -4.03645158477411     -0.64512750891853
  H   6.95888423587697     -1.92241966005735      0.39040025212259
  H   4.19403812465940     -5.76393850112451      0.93796747771027
  H   6.65781811316707      0.28047132680512     -0.05519816274339
  H   2.96420959089216      2.08069427936944     -0.08584498027145
