26
Coordinates from ORCA-job 11798optt
  Br  2.19014536218806     -1.14528885886367      2.93850472287525
  C   3.31775352390530     -0.89934870685896      1.48899981875812
  C   4.08490612833552     -1.84453862778971      0.90938847740057
  N   4.26610445332184     -3.16838079716197      1.19393511259727
  C   5.11576074356132     -3.60013074666560      0.28355754494018
  C   5.53144288591692     -5.02425315258331      0.18222150630110
  C   5.48615996630319     -5.76331130873604      1.53023000270490
  C   4.10890548424421     -6.48230024429560      1.54311853972763
  N   3.40495907258323     -6.11562761570246      0.31019428064556
  C   4.45192174918065     -5.78897208882411     -0.64060880858732
  C   5.51899364527141     -2.56494091334642     -0.65175934394407
  C   6.38107140168974     -2.73751165284107     -1.76310533759722
  N   7.07122152081952     -2.91934892674521     -2.66309594700867
  C   4.86587624766170     -1.43214104672585     -0.24276523782686
  N   4.84909053212666     -0.14840770587230     -0.70797534427882
  C   4.10110824912231      0.65612890597672     -0.06820288959254
  O   3.32885182462231      0.35146134773331      1.00454451259714
  H   6.50606437999344     -5.07782698290794     -0.30391294883370
  H   5.58954436967193     -5.06975747390066      2.36205670546895
  H   6.30169209603766     -6.48342974511681      1.58442541197803
  H   3.50694861915056     -6.21057054703321      2.40808890740268
  H   4.25251670914713     -7.56419907641464      1.56067100887643
  H   2.85460215928612     -5.28252356203901      0.48672982824717
  H   4.06579982550094     -5.21884202755128     -1.48519265303931
  H   4.89715726764465     -6.71039303390589     -1.02381886102217
  H   4.00140178271349      1.70145458817183     -0.32422900879033
