22
Coordinates from ORCA-job 11806optt
  Br  1.04541344282743      0.09161228768385     -0.07444443638472
  C   2.91450208822528      0.05972826577386     -0.07615520303343
  C   3.61765755850721      1.22418505043416     -0.07636195204566
  N   2.90646168821284      2.42173504275034     -0.07584836583247
  C   3.54170457379207      3.52113452025621     -0.07586039727975
  C   4.99145770412448      3.65267617762055     -0.07617262660821
  C   5.59460185755489      4.86166373605080     -0.07582850732058
  C   7.03984924886137      4.94362500831768     -0.07599194488296
  N   7.78429461106131      5.98124878695533     -0.07561423642231
  C   7.67387385516478      3.61727614268554     -0.07668301873018
  N   7.06981572723807      2.48968809944854     -0.07701728277868
  N   5.71606861193529      2.48571457596616     -0.07672509118453
  C   5.08734026235898      1.21680827008237     -0.07703693292685
  N   5.83402616577678      0.18923971187435     -0.07766964300271
  S   5.27435276275472     -1.34622323085911     -0.07804619976805
  C   3.51219702275374     -1.28518838706507     -0.07735071855594
  N   2.79714866826030     -2.33133987325286     -0.07761320205997
  H   2.97173212309232      4.44685665008620     -0.07557803454948
  H   4.98652964249248      5.75728299630010     -0.07541865714591
  H   7.22842430746699      6.83594115913243     -0.07510626696093
  H   8.75698701634369      3.57795061699195     -0.07691812469153
  H   3.35056106119492     -3.18761560723339     -0.07855915783516
