23
Coordinates from ORCA-job 11805optt
  Br  1.10576846015015      0.09838253770171      0.06317100308322
  C   2.96241272760100      0.14496847323444      0.06156298921926
  C   3.66453338598740      1.31175487605175      0.06103910341224
  N   3.00287841803679      2.53206718307868      0.06128189134440
  C   3.68410838570196      3.61308336888278      0.06099441245504
  C   5.13791942839676      3.65791275144244      0.06055612823349
  C   5.84586485194811      2.49331940742676      0.06021728120263
  C   7.28040967398385      2.61707124770378      0.05999145406638
  N   7.90658493441021      3.73896711445835      0.06003015330093
  C   7.19021631881564      4.94212789723687      0.06024132116374
  N   7.70218922857618      6.10007036614880      0.06035490534622
  N   5.79277294112479      4.84026869353268      0.06055236528200
  C   5.11704288800296      1.24747820469884      0.06029325164338
  N   5.76459007392430      0.12453495992167      0.05984838651169
  N   5.04210567561621     -0.98999910872009      0.06005324484996
  C   3.65724637789206     -1.14194283018725      0.06088607606061
  N   3.04442942181036     -2.25818265904304      0.06103457936461
  H   3.13743066462001      4.55468007199659      0.06108198339440
  H   7.87647626255527      1.70887703383995      0.05977446764092
  H   8.71479563125805      6.02015694508405      0.06023679285428
  H   5.29245320938468      5.71798812562969      0.06077887073766
  H   5.59695209484846     -1.83291017407543      0.05958780285307
  H   3.67981894535476     -3.05267448604404      0.06043153597985
