30
Coordinates from ORCA-job 11802optt
  Br  1.51537297018137      0.25608971367951     -1.13387306052580
  C   3.28172454891302     -0.18324406782751     -0.70882808573873
  C   3.64052310951369     -1.36343991429639     -0.19239968452864
  N   2.74652796803334     -2.36011015980661      0.16395751915226
  C   3.18834838411324     -3.74498048621084      0.16403271387250
  C   4.45435547754986     -3.83832345826922      0.99902754044741
  C   4.98712068510795     -5.26946180199054      1.11299212938492
  C   5.63855020190328     -5.75997757736773     -0.17494140030033
  N   6.68466143056287     -4.82241012857173     -0.55240882839581
  C   6.15296491328550     -3.50728586023293     -0.85652498416403
  C   5.52967729500864     -2.92425935667714      0.41425590149101
  N   4.99505436251061     -1.57922021015498      0.13242716152937
  C   5.90619292481927     -0.56658864125640      0.04871025473250
  O   7.08062010623418     -0.70966352709627      0.30201337788487
  C   5.40350256463274      0.78997944805043     -0.41267895622149
  N   6.12629735203332      1.81079273980488     -0.43185802972914
  O   4.13584137038643      0.86776592162265     -0.88762572019321
  H   1.82488916777128     -2.20129880472388     -0.21440034121370
  H   3.35445870032977     -4.13063203015140     -0.84867557421068
  H   2.40019478454141     -4.34264081515008      0.62216705391790
  H   4.20061230280172     -3.47043544721473      1.99645473277834
  H   5.74008789679615     -5.30190156312005      1.90280730853110
  H   4.17312389175621     -5.93710889757328      1.40508425278605
  H   4.87961031612036     -5.87814459398094     -0.96472516099896
  H   6.08691718515412     -6.73974401930219     -0.00863588171658
  H   7.23869785132707     -5.17446567772129     -1.32099281423527
  H   5.39279968191651     -3.52782175334270     -1.65450583341947
  H   6.96367675954301     -2.85435828019649     -1.17829203316310
  H   6.32935230372944     -2.79043261826803      1.14175421396064
  H   7.05124349342358      1.55632186734590     -0.08631777171393
