21
Coordinates from ORCA-job 11803optt
  Br  1.06525097789717     -0.13339367833203      0.00164677702156
  C   2.93070634742830     -0.16277660117109     -0.02750201492753
  C   3.65366751605449     -1.30032779703671     -0.04042546146938
  N   3.31314157776015     -2.64055397106879     -0.04112955911395
  C   4.47067290937941     -3.37234228402580     -0.04800800024148
  C   5.56941189911289     -2.55773486954840     -0.05202144226157
  C   6.96375994401561     -2.93233742393922     -0.05286345323627
  C   8.01668526551013     -2.09242746844638     -0.05304581126710
  N   8.12072738626190     -0.69118932082237     -0.05783590021033
  C   7.17783121356822      0.16421831381670     -0.05677733874946
  C   5.72279857649411      0.00073531610557     -0.05007744436045
  C   5.07857388931296     -1.20835526399019     -0.04858764302591
  C   4.93379350263532      1.21069593132767     -0.04655310833222
  O   5.30558418449537      2.34296442885441     -0.05347162849713
  O   3.51687227150347      1.01667613817867     -0.03149799635278
  C   9.32182926342619     -2.71741224023229     -0.04803747871404
  N   10.34679900512368     -3.23254767171319     -0.04311114537479
  H   2.37630870630721     -3.00340735037808     -0.03741675270685
  H   4.43359672927840     -4.45044225192909     -0.04927653924630
  H   7.18778244267989     -3.99298602539390     -0.05071127161131
  H   7.49220639175506      1.20594408974453     -0.06129678732273
