23
Coordinates from ORCA-job 11816optt
  Br  1.07692170071390      0.05280283892423     -0.77681736238542
  C   2.86768927770588      0.17720123617498     -0.23806268406529
  C   3.52587515511260      1.33743380618070     -0.03341602629835
  N   4.89937123393252      1.33414414214347      0.11222091693676
  C   5.46510647117566      2.66599412821985      0.03455510807263
  C   4.23573669097431      3.52431718299199     -0.02519539932524
  C   4.10379072253713      4.84633340644837     -0.02692237046135
  C   2.75817964207372      5.40693420548917     -0.03805344097447
  N   2.38482460031186      6.58758597653076     -0.23556259470681
  O   1.74460501507777      4.50566452568311      0.25424932040069
  C   1.89386819098426      3.17960133415547      0.44111239380063
  O   1.05137918441708      2.52257770329423      0.95143622469590
  N   3.12298844746543      2.68009055632000     -0.02114666557459
  C   5.66616518200417      0.18052967262519      0.09069932917537
  N   6.93807296059670      0.10955683467742      0.12674855022098
  C   4.82781545058405     -1.01993068489935      0.00506809253276
  N   3.55900837255472     -1.00424695354542     -0.16331811895479
  H   6.08741680507854      2.76542849899624     -0.86039045934036
  H   6.07441784800896      2.89740990577588      0.91165471326830
  H   4.95543552594221      5.50849072664004     -0.02083334331231
  H   3.18017923048134      7.19076900677024     -0.42417361528979
  H   7.39771556510040      1.01503280716715      0.17448897197078
  H   5.34643672716673     -1.97072085676374      0.05565845961396
