25
Coordinates from ORCA-job 11810optt
  Br  1.30760998051140      0.07223057116258      0.44711654538142
  C   3.16878144175672      0.23495982032242      0.29094352723326
  C   3.74273995892175      1.44271427511943      0.40364775039579
  N   3.26498052295344      2.73647638557351      0.51489875476051
  C   4.20355496126804      3.60452847646395     -0.23162949258745
  C   5.54096322729428      2.91943341216342      0.10430213900415
  C   6.16535049204016      3.48369512827840      1.39484434042586
  C   6.51743250262689      4.89581563460092      1.26936617768280
  N   6.75417861681118      6.01222601722471      1.17713598171126
  N   5.12276917958497      1.54631679053788      0.30904906273230
  C   5.78683329315357      0.64598644019886     -0.49968655849776
  N   6.81134146697973      1.37397587662406     -1.09840049613578
  C   6.62475350230089      2.74573232636609     -0.97362063972581
  O   7.23386902859448      3.60217779844384     -1.54250078756843
  C   5.31212454348411     -0.59481122694043     -0.66084253554774
  C   3.99165089859395     -0.93579554222729     -0.08184073706571
  N   3.49400255718786     -2.10803599403462     -0.02474632671451
  H   2.27736482165857      2.84554032426033      0.32862959646271
  H   4.16195233203876      4.63212551105396      0.12158443873327
  H   4.01512988724583      3.58308438646885     -1.30922266606535
  H   7.04956597136501      2.90540783418044      1.66679679962356
  H   5.43119749438679      3.37585292759478      2.19600828591037
  H   7.43792493419476      0.99264456940792     -1.78973648907282
  H   5.81392026722052     -1.32153491748158     -1.28287309726883
  H   4.15600811782630     -2.80174682536243     -0.36622357380707
