22
Coordinates from ORCA-job 11812optt
  Br  1.01970181544456      0.04844467510306      0.13236753562039
  C   2.87854923760735      0.12468936998644      0.08181387385037
  C   3.55548054126075      1.29911884951403      0.07491618224124
  N   2.90192299385245      2.48917132832093      0.08149080280033
  C   3.54774798902996      3.60649432366451      0.07883203300485
  C   4.98417661535327      3.65910371074150      0.07443763813013
  C   5.93966839762421      4.60024531172730      0.08322720455805
  C   7.24719987569438      3.87547292519007      0.07950425124581
  N   8.42100589706986      4.35352743427748      0.09021464236894
  N   6.99973692951862      2.48168482305261      0.06578722319588
  C   5.71800492294966      2.38161947661103      0.06437474738347
  N   4.99531294060873      1.23416404016367      0.05592331986424
  C   5.62779603431502     -0.00475297881889      0.05901245480556
  C   4.90934918572649     -1.13020674706486      0.05761533156865
  N   3.50734571740161     -1.08944355045110      0.03820726711822
  C   5.51248605646339     -2.42086071132966      0.05993383580674
  N   5.95091448119157     -3.48097093130070      0.06789434049287
  H   2.96121149211911      4.51941499093636      0.08205214520106
  H   5.83267342214970      5.67441331304933      0.09348837787744
  H   8.38730168111280      5.37151134457598      0.10106150769190
  H   6.70717743589285      0.01748318207567      0.05846080766092
  H   2.97423633761362     -1.93232418002477      0.17238447751293
