23
Coordinates from ORCA-job 11815optt
  Br  0.94765199749126      0.20289849125700     -0.26253673560484
  C   2.81383972658777      0.14792245328670     -0.09869527259258
  C   3.60960629490140      1.21372088064511     -0.03965273448794
  N   5.01306835669339      1.16395294945963      0.00230261466428
  C   5.60925002311267      2.49170308898623     -0.04236914661805
  C   4.41099202012233      3.38473753533597     -0.03555452500308
  C   4.28260334904634      4.71216034661283      0.01105907206658
  C   2.92988928743852      5.24541543257427     -0.00312729675367
  N   2.55423668623806      6.44420919168698     -0.16686017143227
  N   1.87326136060932      4.29817872149403      0.24464591192392
  N   2.04723983482925      3.07150462706599      0.21824507705224
  N   3.29375625318036      2.58707806202102     -0.04628962741061
  C   5.81770817642492      0.05021930994068     -0.04236812667268
  N   7.08566436508986      0.06000192534548     -0.07506736235335
  C   5.16085465119435     -1.31440758230929     -0.03717619333133
  N   5.82541229329009     -2.38082340543812     -0.02033906750441
  S   3.40931814789350     -1.49428520152468     -0.06185713409188
  H   6.20485520144918      2.61975127389300     -0.95136804543824
  H   6.24931917470794      2.66938983044583      0.82595110801835
  H   5.13965707474502      5.36926992415631      0.05287287181667
  H   3.35458972398706      7.05298310642480     -0.32807552086678
  H   7.50264035742463      0.98486147992262     -0.07372199195115
  H   6.82358564354273     -2.15644244128242     -0.01101770342919
