22
Coordinates from ORCA-job 11828optt
  Br  1.14817674794384     -0.06972356824483     -0.03535566840208
  C   2.99235252886895      0.14243618219774     -0.04785425070405
  C   3.68506245899505      1.27560027442803     -0.05178702981927
  N   5.07726352515623      1.26911520969704     -0.05791138829263
  C   5.63403651919537      2.61037168528595     -0.05732620116183
  C   4.39613487026867      3.46066735262750     -0.05417063471192
  C   4.25432666769393      4.79953406944113     -0.05467343014467
  C   2.91066761696914      5.34894982298057     -0.05177947792746
  O   2.63821442239801      6.53375164058930     -0.05174270835712
  C   1.85318143390963      4.31332249131860     -0.04896581490777
  N   2.04245494161446      3.03998471152733     -0.04848438041628
  N   3.31068533505049      2.62691559831378     -0.05074658143609
  C   5.83248465072869      0.12128674203542     -0.06041914003794
  N   7.09213537771681      0.03209403246265     -0.06344653766449
  C   5.02338419908384     -1.16946826233392     -0.05952575200235
  O   5.51369502708307     -2.24390304999983     -0.06433510819557
  O   3.66022419412106     -1.05406541597106     -0.05198969695348
  H   6.24472111326805      2.78786359784777     -0.94708071578462
  H   6.24782678839499      2.78569810367020      0.83078416671049
  H   5.10829745537480      5.46197890249901     -0.05721860208921
  H   0.82153977989712      4.64322321394629     -0.04736984263109
  H   7.55813434626774      0.93736666568132     -0.06360120507057
