27
Coordinates from ORCA-job 11824optt
  Br  1.20902117643086      0.98512970677646     -0.63345007591351
  C   3.02011426139343      0.48693448025677     -0.54261774905492
  C   3.42405229626868     -0.80836769336094     -0.70415162973234
  N   2.47132872341922     -1.79560090724875     -1.02307307894753
  C   1.76671869070439     -2.52935135273646      0.06160972892277
  C   2.89533560618825     -3.32508184449011      0.70663495235592
  C   3.22638643456029     -4.48714662263124      1.63859052020626
  C   4.77671880916385     -4.28647314384639      1.49760201543939
  O   5.62169919183091     -5.11292051022474      1.63678816292321
  C   4.98855169987558     -2.78564664709707      1.10646200248708
  C   5.33294067914682     -2.41824081618292     -0.37223052300012
  N   4.78598756459980     -1.07073789161329     -0.63221907810961
  C   5.73943696792681     -0.02331206398878     -0.40651986575987
  O   6.90485144421312     -0.30650198231736     -0.25846333765225
  N   5.27377040106790      1.27019520402772     -0.34709494476583
  C   4.00101238869103      1.48925765459673     -0.37707963462813
  O   3.68679960439492     -2.30777248179693      1.31720025860129
  H   2.84649970774346     -2.45093471255216     -1.69733787967611
  H   0.99719709126281     -3.14622045167735     -0.39707312902243
  H   1.30817689040214     -1.81434425202092      0.74173796610788
  H   3.38394644423978     -3.68528812597486     -0.20304360035301
  H   2.95512204187681     -5.48130948358335      1.29245680559091
  H   2.90849778588592     -4.32997664676173      2.66904438755334
  H   5.68962944283751     -2.30246082617134      1.78645490723713
  H   4.93373748799367     -3.12684057533937     -1.09204127513284
  H   6.40453220153256     -2.35675765447953     -0.52109750442487
  H   3.67293496634942      2.52276964043793     -0.29908840125179
