26
Coordinates from ORCA-job 11827optt
  Br  1.11864437436871     -0.21533385988148      0.48704713262612
  C   2.99778356022622     -0.05181526553333      0.32165567784253
  C   3.60581553885990      1.00429339050538     -0.28706618790111
  N   5.00878916276950      1.06913937692696     -0.26681485070816
  C   5.85970947413781      2.22133878799162     -0.72074439745642
  C   4.85600521898909      3.26000192647401     -1.10028032949336
  C   3.98078373299284      3.66758467413807      0.10133799758484
  C   2.66551475677813      3.51795787489424     -0.59261004908629
  O   2.69946773777948      4.37010232150100     -1.76522553878504
  C   3.89297840769931      4.90133585420784     -2.16755142045628
  N   5.05078605758306      4.45978460223361     -1.89555807933679
  C   2.64632388205720      2.01872925798407     -1.01340427314013
  O   1.91232365792874      1.60546422568576     -1.85589271988166
  C   5.80866340828556      0.04704492599592      0.27963527804435
  O   7.02133027639949      0.14565007023722      0.24193685163525
  C   5.10274726991139     -1.05802801625213      0.88630521775745
  C   3.75934301185157     -1.09252363148414      0.92334450051678
  H   6.48519443760877      1.89095098137377     -1.54871087557690
  H   6.51030604105793      2.48498280917839      0.11260589199175
  H   4.25732992843854      2.66126659450609     -1.79694880536590
  H   4.20375628460245      4.68859116018746      0.40238547602315
  H   4.06235941872459      3.01483180847681      0.96636164710875
  H   1.75789076880319      3.77906319970912     -0.04939054357868
  H   3.73578946480472      5.77395580768858     -2.79025841682443
  H   5.71732943203307     -1.83309183562867      1.32068463558940
  H   3.23503469530873     -1.90927704111619      1.40115618087079
