24
Coordinates from ORCA-job 11831optt
  Br  1.31691886122863     -0.23639616140014      0.93791260130065
  C   3.06397783055938     -0.32533824868867      0.23419230425478
  C   3.62905763266412      0.74794207284571     -0.36019517481985
  N   4.87781204152363      0.63699751389429     -0.89164501003255
  C   5.32926860850658      1.84297616455720     -1.58368297092377
  C   4.40623685577272      2.92783997968721     -1.03245631920908
  C   4.89862558987022      3.61832734651083      0.23928019940961
  C   3.69964937293260      3.67353226812730      1.17317843629943
  O   3.60591767734958      4.28974408215464      2.19756995767032
  N   2.73128709096774      2.85530237871211      0.64221058971727
  C   3.11838425312384      2.16729334787189     -0.55742642347248
  C   2.05486266519624      2.18273151294577     -1.57528270220175
  N   1.25115723827496      2.19626140123861     -2.39090713954882
  C   5.62423282918848     -0.52978453806597     -0.85992626273381
  O   6.72526646667959     -0.60375375438430     -1.36264409546790
  C   4.91366579604321     -1.60743716779822     -0.16054958888976
  N   3.72723682828086     -1.50166057043604      0.33427671479470
  H   5.21656866031902      1.69996312600548     -2.65945351665549
  H   6.38265456910318      2.01291489440264     -1.36946469582812
  H   4.14228992907832      3.65639890784248     -1.79456543119724
  H   5.29037070561783      4.61811434029042      0.06938685246154
  H   5.67307347137530      3.03596086405248      0.74507329832448
  H   1.89682912502356      2.61493950472098      1.15712887144912
  H   5.43565590132036     -2.55386926508674     -0.07501049470126
