30
Coordinates from ORCA-job 11838optt
  Br  1.10053923027121      0.10040426338074     -0.09266845851184
  C   2.97071237013044     -0.11188549247071     -0.26483344616983
  C   3.56920090188507     -1.26266637527888      0.11218804180510
  N   2.86767383412371     -2.30997246845097      0.70072488684937
  C   3.38461357500170     -3.66133651080177      0.60730294507261
  C   4.80270542166253     -3.68655088321029      1.15129576460214
  C   5.48457552083570     -5.02897314840316      0.90575167947718
  N   5.98821664774524     -4.90493963514424     -0.45677922337453
  C   6.01290410676111     -3.53486915623203     -0.92413884909239
  C   5.66480221119753     -2.71675428789900      0.33508702067553
  C   5.02102220036102     -1.39234671689081     -0.00694589005825
  C   5.82252039736581     -0.40409455411676     -0.44257405684680
  C   5.43573769733004      0.92238134954588     -0.89496248766437
  N   6.20705163365662      1.84133079978405     -1.31570965585630
  S   3.71843124718897      1.32622823970240     -0.88172949248514
  C   6.22916712297564     -5.96656496626658     -1.27526540491160
  N   6.57767256827956     -5.96368607624499     -2.49820505130101
  H   1.86706075078378     -2.23208833677009      0.60459747014685
  H   3.37878335013443     -4.04495762461618     -0.42272567398176
  H   2.74201598128178     -4.30767319033840      1.20471206179578
  H   4.78518804624536     -3.41848591453511      2.20765595527043
  H   4.79021984337939     -5.86820124584434      0.98881689907215
  H   6.29756756687676     -5.18746999920943      1.62120669450230
  H   5.27700176076570     -3.37600053088923     -1.72224624892983
  H   6.99257679952470     -3.25697077026160     -1.32156250235212
  H   6.59043983293506     -2.52023780207707      0.87940422771125
  H   6.89230877302540     -0.59223222141087     -0.48038500457467
  H   7.17926694901494      1.53832158165104     -1.29955828067780
  H   6.09568508828182     -6.92744254923137     -0.77654571323622
  H   6.67933857097884     -5.02026577747017     -2.86990820695623
