21
Coordinates from ORCA-job 11832optt
  Br  1.03967469509638      0.27659785122283     -0.04344332517648
  C   2.91202321526654      0.19733364097600     -0.04487870613157
  C   3.66784400216476      1.33528330732585     -0.04595232704055
  N   3.00597721261879      2.55863985249759     -0.04651108995687
  C   3.65737020166102      3.65351417739326     -0.04702161975044
  C   5.11340306789021      3.73887897200876     -0.04694446135320
  C   5.76070619166617      4.93548059385288     -0.04714073617468
  C   7.20355671771852      5.00719544961270     -0.04690241708044
  O   7.89312211844364      6.00277806029823     -0.04701300964248
  N   7.82323447173522      3.73553203879577     -0.04662175151228
  C   7.19464414014451      2.55492311830998     -0.04648540274782
  C   5.82676176214759      2.50147472505887     -0.04661036513672
  C   5.11693819756783      1.23301380451192     -0.04623896069804
  N   5.84184595835067      0.14916785733849     -0.04609307246363
  C   5.35180950043960     -1.11579465198650     -0.04553262075939
  O   5.99732095580580     -2.12417843913508     -0.04584462754298
  S   3.54066354975132     -1.38304868438895     -0.04409715759122
  H   3.08846530596043      4.58021176954871     -0.04749905551982
  H   5.22341730640728      5.87407362060766     -0.04741724814496
  H   8.83474761501257      3.77178486784355     -0.04647805582974
  H   7.79547381415109      1.65513806830746     -0.04627398974665
