28
Coordinates from ORCA-job 11842optt
  Br  0.80684474437278      0.32832878550083     -1.33973724068506
  C   2.60300075518939      0.67533673988138     -0.79896426440907
  C   2.94463492714046      1.09480231709375      0.48542564642626
  N   2.10681524330638      1.56282043691744      1.44435459577972
  C   0.91086454104875      2.39393083786104      1.26873634954338
  C   0.99332913145193      3.73884006858442      0.47177118893051
  C   2.37281899777355      4.40742058027601      0.48401905674827
  N   3.30807859305212      3.64295107690501     -0.32291845667553
  C   2.87691703282105      3.31459396753627     -1.45262796057826
  C   1.54317761647490      3.76499228596717     -1.97028074202602
  N   0.52711613806290      3.66385319470231     -0.91150677211405
  O   3.61063208642802      2.40186171544775     -2.19358080901665
  C   3.66462773573062      1.13498954117292     -1.63497087926583
  C   4.84007318422948      0.58562450350344     -1.21416336534136
  C   5.32318555755460      1.28548976162558     -0.00799225905071
  N   6.35967389805290      1.79342612090428      0.44683743464467
  O   4.22410917165122      1.20908510035458      0.92241636724463
  H   2.63020527329572      1.79579773779774      2.27489098997693
  H   0.62128707356383      2.64678438103164      2.28827867714011
  H   0.09711235588462      1.79847404476955      0.85710188199962
  H   0.31158901708112      4.40457530650546      1.01138108341053
  H   2.76353240784816      4.48301776474403      1.49867501129496
  H   2.26138929914641      5.42523136519988      0.09479526441951
  H   1.23838946882776      3.16822341071537     -2.82712369978968
  H   1.63011606900146      4.80511040968229     -2.30053684712300
  H   -0.01716592859074      2.82652877465717     -1.05847703988168
  H   4.75158684715799     -0.47447404390045     -0.99704319557489
  H   7.08405876244256      1.78738381456311     -0.26576001602729
