23
Coordinates from ORCA-job 11859optt
  Br  1.85879307484907     -0.43455579694418     -2.12371735917791
  C   2.93086921507799      0.10009446240858     -0.68485610735354
  C   3.23793123719470      1.41214456724633     -0.51419796858951
  N   2.92769896370205      2.30739206254394     -1.52570395575314
  C   2.70866741458202      3.56038390974494     -1.41479171364569
  C   2.73447439004744      4.37257327104197     -0.23484127768662
  C   3.37604598028273      4.04383011559146      0.92198262653327
  N   3.34673338479646      5.05443923437087      1.85247917185302
  C   2.69535382190016      6.22203541196837      1.49065539397197
  N   2.50039300637953      7.28752433791827      2.13663907412441
  S   2.10250794734343      6.00230498919763     -0.16703579082335
  N   4.09095021075862      2.93833232973149      1.27040157866677
  C   4.02995852907809      1.79072382254049      0.68463466489176
  C   4.77970914652776      0.73133164041791      1.35434231015027
  C   4.48512711700697     -0.55011726604870      1.14507490803912
  C   3.44224441680949     -0.96249533378294      0.19284321222077
  N   3.01875560714198     -2.15984863144143      0.08796580271246
  H   2.47965499939859      4.07845193398997     -2.34577335378269
  H   3.82443327858223      4.95234278763523      2.73490032046630
  H   2.89252633781865      7.25977968091682      3.07427469195278
  H   5.49784398279195      1.05158745258466      2.09689036037465
  H   4.98158304385487     -1.33768514782227      1.70020237318321
  H   3.50174489407514     -2.77056983380945      0.74663103767167
