29
Coordinates from ORCA-job 11853optt
  Br  1.29164118024432      0.33843673150366     -0.42177870246933
  C   3.10205064413338     -0.14949345064291     -0.42790221197962
  C   3.52630901730060     -1.41153782642027     -0.21333104226571
  N   2.69746108207051     -2.50622554514745     -0.03521918803157
  C   3.11028802551787     -3.67652587015920      0.73417373400856
  C   4.59534912795609     -3.64832050473914      1.10219595012775
  C   5.11436536994404     -5.05171930348801      1.38057047132073
  N   5.19781174168059     -5.83877488268633      0.15418584241693
  C   5.68352587530039     -5.31642600806654     -1.03422422209052
  N   6.28149645896425     -5.96960826453909     -1.94509824373510
  C   5.35747255972588     -3.86304767394565     -1.28156973084923
  C   5.43795180588558     -3.01244427153544     -0.00821463321731
  C   4.95745980762908     -1.61325133567367     -0.25548296909347
  C   5.78781572861870     -0.58113866861005     -0.49683539869569
  C   5.29456783124206      0.75707256647412     -0.75325176142000
  O   5.94009370206431      1.73410242955936     -0.99603671089522
  O   3.91426466045867      0.88145853777402     -0.70477350681342
  H   1.71653663227370     -2.28206114507124      0.01754006181344
  H   2.90295369819050     -4.57387653704919      0.14621076482844
  H   2.52767183982980     -3.74860608870855      1.65711534566045
  H   4.72565216864255     -3.05415675503056      2.00986316164820
  H   4.44499280411974     -5.57009670848468      2.07028265179487
  H   6.09366465673500     -4.97283388729104      1.86723246409473
  H   5.44997612478621     -6.80528028469880      0.30215510682702
  H   6.42287785401608     -6.94636371678284     -1.68676348965205
  H   4.34367070489336     -3.81334892950865     -1.69018727339449
  H   6.03757224014209     -3.49169747842823     -2.04447194210657
  H   6.47991118194075     -2.97019457566859      0.32029437544048
  H   6.86159547569384     -0.70404055293500     -0.52267890327230
