25
Coordinates from ORCA-job 11854optt
  Br  1.23594903718950      0.09546617189769      0.42655538138119
  C   3.10484774564931      0.17970532954166      0.25250646025981
  C   3.71968110737014      1.35770703478941     -0.07052715836051
  N   3.03030998723377      2.51552567577797     -0.26043397704167
  C   3.68426073781078      3.62703076481707     -0.33930171932593
  C   5.08872422343564      3.73446696590119     -0.17092081510693
  C   5.79332428810163      2.55316990019772     -0.07871362333196
  N   7.11961926116904      2.57417943332744      0.17854253200945
  C   7.88614935839762      3.74808986102493      0.35471354324459
  N   9.12844764710348      3.74231940182852      0.62346449622135
  C   7.13334050748978      4.98276271259957      0.19889621894058
  C   5.81362678169076      4.96669146564410     -0.04496687930484
  N   5.13351095089740      1.34481806134945     -0.20224810650492
  C   5.85651357065461      0.11494768046595     -0.38739218402495
  N   6.97479283931991      0.02163053274317     -0.99989736006936
  C   5.19597801113875     -1.02442810976029      0.18850759403610
  C   3.87296607983852     -0.98962270977851      0.46764440421276
  H   3.10454087838682      4.53139513413277     -0.50623612250292
  H   7.60244364279952      1.69008817255734      0.28438165367516
  H   9.51823419094652      2.80486830358836      0.69849291554759
  H   7.70011322323483      5.89635038990400      0.29747222565850
  H   5.26210682148223      5.89402044881754     -0.14519722054120
  H   7.24086884770427      0.87135364697976     -1.48812535608994
  H   5.77966554471577     -1.92935275529057      0.26844031032151
  H   3.36798471623937     -1.87918351305624      0.82034278669653
