26
Coordinates from ORCA-job 11850optt
  Br  1.45795099011278     -0.17783048037152      1.01341697739282
  C   3.17289514836333     -0.07484100099166      0.26025743912359
  C   3.93686692842695     -1.19399041645157      0.03847848852412
  N   3.82544780400334     -2.53328509246380      0.37310673154589
  C   5.20453530138958     -3.05306788393081      0.63109072780653
  C   6.10229507217849     -2.19358174533320     -0.29953688458010
  C   7.41045019948613     -1.50107152795787      0.17506472390170
  N   7.27151155050578     -0.07558781977728     -0.29111117722477
  C   5.90211899779557      0.15499912492723     -0.35918947107664
  N   5.16905348382823      1.28937649125533     -0.19695594570618
  C   5.49014374464291      2.64661820501027     -0.14722864916541
  C   6.77671185557225      3.20176624115328     -0.49665466585713
  O   7.05426320789062      4.37463371561788     -0.39999923297860
  C   4.29261890560174      3.27172869456357      0.14529530818515
  N   3.27748425325493      2.40279272935629      0.27714744505529
  C   3.79291594679426      1.19311990792340      0.08503377199269
  C   5.23174986802503     -1.00442581533354     -0.43413227614010
  H   3.10888690272275     -2.77449724704441      1.04359478002214
  H   5.24863579331125     -4.11707039566639      0.41144900276908
  H   5.47909861459388     -2.89030176643340      1.67959870804420
  H   6.26162107912346     -2.70592616983523     -1.25157857045817
  H   8.30851046610836     -1.93796722630229     -0.25315520172306
  H   7.48261677732385     -1.52410636905005      1.26733369361111
  H   7.81564355454092      0.60479658453667      0.22190980125196
  H   7.51899370707155      2.48269677718856     -0.89560591193436
  H   4.15097984733202      4.33702248541054      0.23637038761824
