21
Coordinates from ORCA-job 11866optt
  Br  1.06931971893262      0.11712062685131      0.08222803667802
  C   2.93616463627376      0.11746753837933      0.07976064694590
  C   3.66845698516835      1.26310326813151      0.07889252348078
  N   3.01498768173847      2.49304910839114      0.07918898441002
  C   3.71122272100080      3.56101752575324      0.07876950118674
  C   5.16323251301425      3.62284870889629      0.07818892447785
  C   5.77893757569709      4.83681677996877      0.07824645546776
  N   7.12448508551271      5.06440293824817      0.07797234520043
  C   7.92272328975196      4.05962914185980      0.07745728840942
  S   7.59853099194524      2.36480095879890      0.07701535423925
  C   5.85142717436461      2.36118142020716      0.07768637716765
  C   5.11931336950829      1.20753702762945      0.07778973987567
  C   5.79526917283660     -0.09112921294114      0.07719850863094
  O   7.00873576167409     -0.20583181630226      0.07631761810473
  N   4.97122899735391     -1.18282208922719      0.07755417705634
  C   3.57397001029962     -1.20569245124455      0.07884180434023
  O   2.99553500042761     -2.26285021474965      0.07911032975046
  H   3.17558970972392      4.50897892758719      0.07887862075470
  H   5.16486313118975      5.73101919764020      0.07854912262062
  H   8.99303938273229      4.25429263268350      0.07733532038734
  H   5.41896709085403     -2.09094001656117      0.07701832081517
