25
Coordinates from ORCA-job 11860optt
  Br  1.29171342851278     -0.58549167364244     -0.74393166379144
  C   3.08902154726538     -0.19520527621777     -0.31933628275142
  C   3.95077841871320     -1.24150539556529      0.00146648107020
  N   3.66207485721725     -2.57049250566988      0.12274720363464
  C   4.90555262426581     -3.33486516633169      0.17817966607000
  C   5.97249224841240     -2.29828064941230      0.60344565377252
  C   6.48650247609528     -2.43275872301605      2.06312106758305
  N   7.87549620346010     -2.87047555134823      1.93742324294964
  C   8.13533077643969     -2.85663780876246      0.70806671589113
  O   7.16393029604553     -2.51543186098160     -0.17385579036398
  C   5.29770376045944     -0.98601079846223      0.28338370212533
  C   5.76734045002766      0.30818194910276      0.29358299506654
  Br  7.58366305769550      0.60521288877020      0.75427971999005
  C   4.91164488125576      1.37039216634826     -0.02337378385900
  C   5.33683206878347      2.78788512003318     -0.06412546598651
  O   4.58621240329287      3.69158249577378     -0.32882725852916
  C   3.57681574900211      1.09167379397612     -0.33120212843771
  H   2.85362644771521     -2.94079000917700     -0.35311312924263
  H   5.18041043317950     -3.72381243720889     -0.80548970892601
  H   4.83076187407117     -4.16160346026099      0.88312570460808
  H   5.90488935686511     -3.15711855447208      2.63368982132284
  H   6.45423644357942     -1.47951584030753      2.59279173961993
  H   9.08988258533980     -3.09398377229177      0.25699933812540
  H   6.39581166570565      2.98493243936400      0.16108057386806
  H   2.93727594659987      1.92911862975992     -0.58112841380956
