24
Coordinates from ORCA-job 11862optt
  Br  1.56875599731864      1.60385884883900     -1.41420779263565
  C   2.81790588953070      0.63083377340381     -0.40131169931824
  C   2.79738793130797     -0.72854962939461     -0.38801125263098
  N   1.89682689485339     -1.37051797433145     -1.20622857657754
  C   1.40544022041748     -2.54750850982084     -1.15328895309438
  C   1.64809980050552     -3.56074846801171     -0.17375877517989
  C   1.01294177871462     -4.74972366775816     -0.02536257841230
  N   1.52010568303286     -5.43053583972948      1.05589157227783
  C   2.54460089164912     -4.70451212991265      1.68313614532049
  O   3.16284183587672     -5.06213999308773      2.65424841065014
  C   2.64693692475717     -3.47545856728634      0.86765529129848
  C   3.59719363963166     -2.55495772547233      1.07836219978990
  N   3.79515133921790     -1.36656909784279      0.41600078025293
  C   4.99692827404325     -0.66693449911635      0.78068685384051
  N   6.09141287692462     -1.23902323690793      1.06999555983055
  C   4.85859417582680      0.77504836711388      0.86732070848717
  C   3.80415201388462      1.38919184300147      0.31618608324650
  H   0.69981372287395     -2.79483195602233     -1.94636445066167
  H   0.21625850563924     -5.16729444129431     -0.62166609022889
  H   1.21467962979551     -6.33030094541952      1.38646708506040
  H   4.29919358036888     -2.73154265866082      1.88611557492304
  H   6.08012886002088     -2.24261241893219      0.90324427407212
  H   5.66401014007389      1.30558724086672      1.35341546236557
  H   3.70363939373460      2.46524168577670      0.34747416732389
