26
Coordinates from ORCA-job 11875optt
  Br  1.31887891304433      0.69684042116128     -1.18206736276639
  C   3.11449417140083      0.20519485294566     -0.85446964561845
  C   3.45371433691448     -1.09292623822615     -0.64169879777836
  N   2.38130517554894     -2.04185609119410     -0.79569054875205
  C   1.82902413988583     -2.76440867610512      0.37975131223112
  C   3.04192197677642     -3.40530520677382      1.03977314370919
  C   3.56081063031572     -4.69764575502528      1.65587761337315
  O   4.99369708499130     -4.38564326963245      1.58386358712454
  C   5.17404012902418     -3.00252739408629      1.45260321211889
  C   3.86344060824019     -2.43154005838151      1.90205871509799
  O   5.33112803578439     -2.63873675269267      0.02279895867568
  C   4.89081873143754     -1.38505479193392     -0.33816958952796
  C   5.88210355594008     -0.46466527217987     -0.40026619646630
  C   5.77356135553714      0.94232152018158     -0.69783570949160
  O   6.69213682114821      1.71768899469749     -0.77293350762134
  S   4.12172524588321      1.60017819661750     -0.89025179064028
  H   2.63883400686011     -2.72267219552553     -1.50107759059096
  H   1.10419111720723     -3.47827819938409     -0.00896023045852
  H   1.30188868451096     -2.05600340311603      1.01936688813627
  H   3.60581265135321     -3.53321337678767      0.12833281884577
  H   3.39360224147615     -5.58842434391687      1.05540216846315
  H   3.29313572571764     -4.88524118367786      2.69718660092647
  H   6.09666376632293     -2.71497104854322      1.95068284811131
  H   3.72430670064313     -1.37286328805763      1.71606840599906
  H   3.70353243239177     -2.61915474533124      2.96513194903089
  H   6.88823176164402     -0.80209269503217     -0.18447725213127
