25
Coordinates from ORCA-job 11876optt
  Br  0.97601325535800      0.03259389594478      0.77009565689591
  C   2.80874092523540     -0.11264802118546      0.35644835965498
  C   3.50010997673982      1.05392337208971      0.08217120241938
  N   3.09552717840114      2.38038916271343      0.06692743787267
  C   4.31872809846019      3.20297015170889      0.19363633691302
  C   5.37143917555232      2.33941954592050     -0.52481772040640
  C   6.86697205334714      2.45912195536307     -0.12953164045765
  O   7.36848640841836      1.27258649919620      0.46262575301611
  C   7.06747757502761      0.06129361513666     -0.22158973371972
  C   5.58086413089169     -0.17516700859430     -0.14026221078554
  C   4.84797272308651      0.97408419262270     -0.22219264556549
  C   4.89116027325423     -1.35756846386738      0.13969629963687
  Br  5.87637013639284     -2.96804423257715      0.24271296425719
  C   3.50992985733634     -1.33104327458034      0.35413317298542
  Br  2.56886099207638     -2.92963921225796      0.67465602207853
  C   7.68309271540824      2.84201663551439     -1.29323183231769
  C   8.33039477660454      3.14479358925533     -2.25425566904884
  H   2.30558163094564      2.62082554339360      0.64860277435961
  H   4.59725284348421      3.33138739428997      1.24710103490902
  H   4.17753839610811      4.17936767739600     -0.26428859682226
  H   5.27928479872344      2.51128266541922     -1.60099070766469
  H   6.98624311306878      3.22013734306833      0.64435169200565
  H   7.62592977481580     -0.72015140401259      0.28697087955826
  H   7.40824171045786      0.11670267475509     -1.26248452322311
  H   8.91378748080535      3.41436570328729     -3.10248430655123
