30
Coordinates from ORCA-job 11877optt
  Br  1.36812467560120      1.30172730809342     -0.14455902950736
  C   3.09103471855184      0.62202153952444     -0.37748202474129
  C   3.31281575494894     -0.68663871939018     -0.58397006798342
  N   2.25330520634272     -1.59757642169802     -0.78121420314148
  C   1.70867622922043     -2.34922002149261      0.37799211116129
  C   2.81543115651716     -3.28995029230320      0.83455543592929
  C   2.71630893999398     -4.64100765227132      1.51735849924981
  O   4.07069046913389     -5.08852265922610      1.70038300025730
  C   5.06284481477905     -4.57878877535682      0.81407749429102
  C   5.17187052417921     -3.01648030812990      0.83622032893086
  C   3.93859391079009     -2.55224757289391      1.57651619446844
  N   5.11985614014953     -2.45398626774006     -0.55039851160123
  C   4.74484729329413     -1.09006652883559     -0.62921069834643
  N   5.70906135650457     -0.25682628854797     -0.73867643802207
  O   5.40062106055877      1.08410000662853     -0.82207581501675
  C   4.19694573933734      1.58131393371946     -0.37946063313262
  N   4.06813472598365      2.80119973178320     -0.10412828475089
  H   2.55538625464591     -2.28012780190357     -1.46824727494848
  H   0.82244077168506     -2.87636961818599      0.02342859797449
  H   1.39716343140464     -1.63633582711859      1.14176706900576
  H   3.22829300176350     -3.58320242239062     -0.12954972896368
  H   2.16272752402305     -5.36572746686628      0.91146500679689
  H   2.27776670888513     -4.60311944248907      2.51636283294474
  H   4.88302246741734     -4.90898527926733     -0.21469216010240
  H   5.98980729726802     -5.03279274224916      1.15897773354449
  H   6.09600785278706     -2.68947874364950      1.31938433553594
  H   3.83157471406279     -1.47076308528914      1.58726983837027
  H   3.98553927465622     -2.87346383200399      2.61650336960331
  H   6.03065782654406     -2.54078862161399     -0.98739292509960
  H   4.95645015897072      3.29010387116388     -0.20220405270621
