26
Coordinates from ORCA-job 11881optt
  Br  2.26029261050493     -0.74375001270594     -1.10121900995056
  C   3.26087526814536      0.36495425388961      0.02646921164005
  C   3.18432421543406      1.71599006758839     -0.00967948474266
  N   2.35320047328271      2.37203790938009     -0.92597324589107
  C   0.90382733689441      2.35864316471131     -0.74004324203347
  C   0.36342588492822      3.60067708833829     -0.00624719373409
  C   0.65629481241057      4.89527354122326     -0.77055074087507
  O   1.95588907547230      5.25650016936993     -0.26962569021017
  C   2.09205641440956      4.54552090976911      0.87913259947347
  C   3.42157176785416      4.63558727111837      1.53291096178613
  N   4.36106574938198      3.74460693880210      0.81968071107089
  C   4.16847445332262      2.35835073513594      0.85351336713568
  N   5.01895399696207      1.70005093153154      1.58073327359172
  C   5.00186125699190      0.33597868598335      1.64632820283051
  O   5.69369210743783     -0.35473192702141      2.32129593237958
  O   4.04933004158171     -0.31947624657249      0.83903991250370
  N   1.18564934734598      3.72822446887708      1.20008997736147
  H   2.73354296137858      3.25793520131184     -1.23008583790356
  H   0.64656380668873      1.47270300946953     -0.16234493447710
  H   0.41244642722401      2.27322112334336     -1.71307367639845
  H   -0.69339275664117      3.46942167110026      0.22023019708270
  H   -0.04401867608539      5.69724395456572     -0.53210266849605
  H   0.72252446693395      4.77198352016925     -1.85083667755914
  H   3.31799611396214      4.35197343272538      2.58204204987035
  H   3.82174762989064      5.64441918342961      1.45553756246743
  H   5.28880521428808      3.90266095446643      1.19877844307769
