24
Coordinates from ORCA-job 11886optt
  Br  0.81474369066389     -1.12594350138459      0.82802335114031
  C   2.43010089230229     -0.22639995774797      0.54822173285753
  C   2.66611441546155      0.97861376757756      1.07403427418381
  N   1.76031839078851      1.77798817355647      1.76575809824463
  C   0.78931609365805      2.48824628399949      0.90057068387301
  C   1.51168613938077      3.47602713458283      0.05055093666463
  C   1.72298702707750      4.78644660372347      0.06184998869024
  O   2.87191202052417      5.07606270454603     -0.65446426351248
  C   3.46458837831083      3.86286688958750     -0.86520340403954
  O   2.49456992773077      2.91523330685310     -0.75812083153952
  N   4.68912331467427      3.69480239163109     -0.99678123933898
  C   5.28841160592710      2.37134380511046     -0.95907810078915
  C   4.46191592008997      1.25718006829900     -0.35761973485207
  O   3.89234027964774      1.57470979701141      0.84316612402653
  N   4.29509810668568      0.15394126878313     -0.94590035582283
  C   3.44363086063203     -0.80835331152622     -0.34821564958846
  N   3.49169499908930     -2.04196012879093     -0.61132910863763
  H   2.25135014731792      2.43345450720774      2.36355653222149
  H   0.05966026580579      2.99225445959114      1.53090061859541
  H   0.27129097813163      1.74061754189897      0.30007607930641
  H   1.21308334742526      5.60628905628066      0.53290637660546
  H   6.21290250286552      2.46560653733999     -0.38405158834644
  H   5.56372214997864      2.04438927288133     -1.96097384566299
  H   4.23843854583077     -2.21841667101168     -1.28287667427937
