24
Coordinates from ORCA-job 11889optt
  Br  1.26221374205853     -0.17867811558329      0.16254208160509
  C   3.11556939321336      0.05984990364696      0.03361123741420
  C   3.70085856589396      1.26216734272561      0.11286689050536
  N   3.04972744570800      2.46456281569209      0.38664012691485
  C   3.58667685067683      3.66978517189850     -0.22269921189202
  C   5.07952716948270      3.72075188767839     -0.06768798407025
  C   5.78936885305506      2.58068091213908      0.04534929309440
  O   7.13112881921305      2.56321634178945      0.14012116666038
  C   7.89937106124009      3.71651089533715      0.12244323974125
  O   9.08486349246254      3.60211503384200      0.20461864466256
  C   7.14996153885051      4.95890443203647      0.00325644524143
  C   5.80853512324181      4.95322681664423     -0.09274326019835
  C   5.15215057044725      1.27057208080106      0.02419033135807
  C   5.83815305806081      0.12081664877543     -0.09348787087638
  C   5.15361906421314     -1.16157716932628     -0.15603460099441
  N   5.64720943974785     -2.31684680111539     -0.27082821700451
  O   3.77679313453793     -1.10570353073247     -0.09259007208853
  H   2.04437100159301      2.39133272856194      0.32192820815328
  H   3.14054415383083      4.52935342542916      0.27910384784167
  H   3.33618318740514      3.74819139613809     -1.29116840168217
  H   7.73862894013798      5.86424404500043     -0.00176271524801
  H   5.26299944855851      5.88601060296316     -0.18282209458710
  H   6.91706909207024      0.12077876159805     -0.15661688524648
  H   6.66047685430081     -2.26726562593982     -0.31323019930431
