28
Coordinates from ORCA-job 11884optt
  Br  3.17934458996412      1.59290159923015     -3.05371627130917
  C   3.95986544702479      0.90235606336276     -1.49764170781951
  C   4.24985163731911     -0.39813004223358     -1.33563900363910
  N   4.07752837164245     -1.47274820650101     -2.23258644853134
  C   4.80988366794647     -2.60874192223987     -1.66449898915479
  C   5.02068956798829     -2.32461781295683     -0.15637557577598
  C   6.35136165836594     -2.89967297475725      0.30689609461223
  O   6.44664529367262     -3.08019495087006      1.71366878015142
  C   7.09063727187679     -2.17321553179850      2.49561904281371
  N   7.68467324634453     -2.51017003133953      3.55090929246061
  C   7.00678112059676     -0.71465091666609      2.11813211029148
  O   5.64673270294516     -0.29480587733728      2.09064824720909
  C   5.11527533185792      0.05082725565039      0.88648170590100
  C   4.84883525568283     -0.82572429230834     -0.09826284429017
  C   4.78384613436132      1.47519968297017      0.73868718316331
  N   4.96832551382466      2.40263302981354      1.59371512655539
  N   4.20338082713956      1.79213287484304     -0.48382521534321
  H   3.10655678966824     -1.67348487478978     -2.43303413459554
  H   5.78729124935475     -2.67803004159589     -2.15331638200695
  H   4.28248156043343     -3.54350482830406     -1.84295551478347
  H   4.23047301487320     -2.79146309323453      0.43990758772876
  H   7.18397271922682     -2.30223622922662     -0.07239330039368
  H   6.45679261517650     -3.90336020141109     -0.10902846890165
  H   7.66042795301631     -3.52352707639421      3.66714630618003
  H   7.47936188009971     -0.51502768236075      1.15353557215424
  H   7.52662448357449     -0.15618323654730      2.89278564954651
  H   5.37662810361490      2.01337234269889      2.43814141511525
  H   3.96773199240819      2.76606697430364     -0.60700025733844
