23
Coordinates from ORCA-job 11893optt
  Br  1.31926524081512     -0.30308341810139      0.54334618593662
  C   3.13558101459716      0.05022657802323      0.13847456899369
  C   3.73351860877057      1.25316140306658      0.28324563383560
  N   3.22009260701424      2.49419656144235      0.68565371671375
  C   1.86214040134726      2.97680254325362      0.45839722498857
  C   1.55087964409394      3.12523672937915     -0.99336914415840
  C   0.85148172060899      2.37179989087689     -1.86885604983837
  O   0.92574471266063      2.94821038372743     -3.06275415091295
  N   1.69885008542706      4.09132683497167     -2.91927031984880
  N   2.05243280117993      4.18037826382567     -1.72711554459182
  C   4.27096105218453      3.38983557678956      0.69292156116640
  C   5.44623655351314      2.80393153439656      0.38539019514006
  C   5.17146702421587      1.42301042450775      0.09438911505276
  C   6.05701358350102      0.45278355695667     -0.26304427935642
  C   5.71095338069312     -0.90095754916112     -0.57253766600239
  O   6.44824740279534     -1.77970087154474     -0.94270449271635
  S   3.96590418868410     -1.36692009282629     -0.37029165688406
  H   1.79771688890221      3.95423239053715      0.93598828523044
  H   1.14259603815613      2.32535678165468      0.94122566065965
  H   0.28778271461083      1.45883275890769     -1.78850008350805
  H   4.06746848560614      4.42439918603515      0.92404305570102
  H   6.41410286884053      3.27384914078262      0.36038275038822
  H   7.11156298178209      0.68409139249911     -0.34701456598917
