23
Coordinates from ORCA-job 11895optt
  Br  1.08608825377029      0.13702954606717     -0.50328211716170
  C   2.94565460056250      0.02558486310995     -0.23244012934465
  C   3.59753813719670     -1.19213815187276     -0.05913610257926
  N   2.93117394239315     -2.42607364290998      0.03012926924807
  C   3.61095172810723     -3.57084891431772     -0.57852708377664
  C   5.04171946118445     -3.60802594338741     -0.13238564258777
  C   5.68010411045541     -2.43736564719821      0.15482927380817
  S   7.30097447549399     -2.77144453735587      0.59710614484327
  C   6.98990824880179     -4.44648326091796      0.35488608458836
  N   5.78476967827625     -4.74363151266500     -0.02051425635890
  C   5.00369481144041     -1.15885625290018      0.02664357604130
  C   5.64764372749470      0.07003155766377     -0.03571310557956
  N   5.01168784517533      1.22690020534450     -0.16214596981994
  C   3.69141559406386      1.20124349461764     -0.26396924489404
  C   2.05075153176151     -2.67973455045292      1.08938322518540
  N   1.66802728828839     -1.92219098368176      2.01901474797080
  H   3.55406200032538     -3.49536936148346     -1.66861167254674
  H   3.09707090489172     -4.48260730651746     -0.28072320881142
  H   7.76648818027051     -5.17908650455112      0.52077289907387
  H   6.73068763719573      0.11440333313597      0.02372737344071
  H   3.18457560670117      2.15014592362889     -0.39309757122212
  H   1.65840596258030     -3.69448134311344      1.04147089309182
  H   2.09360627356919     -0.99700101024262      1.99358261739097
