23
Coordinates from ORCA-job 11896optt
  Br  1.08728184523059      0.09538481793287      0.35641479837848
  C   2.95393059502832      0.05727764762952      0.12616975569984
  C   3.62097124989383     -1.10577469393032      0.24465742263184
  N   3.05721586537653     -2.33982129966623      0.54301322972170
  C   3.62382780552754     -3.55172145310289     -0.03509392988840
  C   5.11314913436042     -3.46702321976395     -0.03479834504962
  C   5.76941408991197     -2.27456758720756      0.07487416613532
  S   7.46178896223879     -2.52954711143733      0.01312016699606
  C   7.15435209666270     -4.20674095586149     -0.16198780846742
  N   5.90447814774607     -4.56490496257863     -0.17416834847361
  C   5.08104406368470     -1.00803788171942      0.18004913793619
  N   5.73381040704001      0.09814495419004      0.23631705798410
  C   5.03217707321550      1.29052465592916      0.36066708967894
  N   5.54473865952897      2.39227873721153      0.71095965284768
  N   3.65283436884705      1.25937060439998      0.00220871711472
  C   3.14743513492330      2.38277627016323     -0.67712953748965
  O   2.06832313783892      2.43589808027329     -1.18846580231888
  H   2.04760853683940     -2.32336092411152      0.54340460762648
  H   3.28108697769379     -3.72617738523792     -1.06426541990606
  H   3.31428482257368     -4.40799729475919      0.56397160697790
  H   7.97079159523718     -4.90949007250905     -0.25122068662468
  H   6.54895985572256      2.27137817385114      0.81886473943755
  H   3.88649557487814      3.19013090030475     -0.67856227094848
