26
Coordinates from ORCA-job 11904optt
  Br  1.28110851286545     -0.19646172404613     -1.13750038792695
  C   2.93996130081918     -0.17020712279740     -0.25936003298346
  C   3.43055910158824     -1.23946309969677      0.41607197503931
  N   4.72380607913798     -1.19802725307644      0.89707629317898
  C   5.51351298740586     -2.38672177494059      1.24729736773949
  C   4.64175276032016     -3.62784386552606      1.15332643572846
  N   3.33220833364511     -3.36482176597328      1.72134107226039
  C   2.66404581405354     -2.55530773442182      0.69098074914601
  C   2.85174082238913     -3.46602012839524     -0.53781900032733
  C   4.28596568495277     -3.92632883814002     -0.31381160253816
  O   5.03804051995895     -4.38868931625236     -1.11838993561276
  C   1.28885779790996     -2.33827756734014      1.13481996736820
  C   0.19404796924152     -2.23338680925462      1.60368415276262
  N   5.47925082948236     -0.09388831457615      0.84496058407369
  C   5.00430316185633      0.96096279899298      0.29394320804118
  C   3.70892802648566      1.06117063460114     -0.37691777463012
  N   3.28116511680936      2.08936794161854     -1.00097633832806
  H   5.89290684245322     -2.25784693423399      2.26228714686344
  H   6.36268146279593     -2.44872857178211      0.56484872493234
  H   5.14154102086867     -4.48321648329897      1.60469195372117
  H   3.35961410432219     -2.88594789443135      2.61568357849681
  H   2.72217462214738     -2.97017558011381     -1.49654130696687
  H   2.17734137410556     -4.32074403270994     -0.46311813795493
  H   -0.78834382068369     -2.11937346852789      1.99658511066121
  H   5.65538676305282      1.82886824065001      0.29884868937692
  H   3.96044281201631      2.84710866367240     -0.95601249212156
