20
Coordinates from ORCA-job 11905optt
  Br  0.92257765829453     -0.78645001341470     -0.51219041855189
  C   2.54347492178675     -0.45629245362931      0.33244212997552
  C   3.12894880698900      0.76348811060001      0.44242453526553
  N   2.99206756867026      1.85955589728347     -0.44734892101527
  C   4.21950302451522      2.25513072812042     -0.67434827043497
  C   5.22085851151003      1.52245684437251      0.11409140754753
  N   6.42443493679269      0.83667192047768     -0.24206405256326
  C   6.40011512998366     -0.30587214145063      0.38448415049723
  C   6.72856269554002     -1.71848088403773     -0.00301119525494
  N   7.71066899893244     -2.48741985619051     -0.52023379351029
  C   7.18037346738569     -3.69076284158807     -0.59837403884112
  N   5.89218611872344     -3.73377630703639     -0.14690254861214
  C   5.58728810134340     -2.46454480692021      0.23680344857128
  C   4.55009259898883     -1.59908344362339      0.82643462658919
  O   3.21232305965155     -1.63323087729273      0.62389444612584
  C   5.16230256523759     -0.44517755993720      1.16114595402074
  C   4.45704970391826      0.74235032133499      0.93111440254305
  H   4.40956666409020      3.01246161296304     -1.42373824823071
  H   7.67491812767290     -4.56978669031731     -0.97855849856475
  H   5.29868733997351     -4.54623755971393     -0.12506511555658
