22
Coordinates from ORCA-job 11900optt
  Br  1.08412216831461     -0.33934107278038      0.10756868667528
  C   2.93661297161588     -0.09587403132101      0.10440714596355
  C   3.75947977634985     -1.17621452250649      0.10174817191467
  N   3.65879776541466     -2.55385276701014      0.10071200309184
  C   4.91755168546261     -3.13607744278099      0.09872684436261
  C   5.84221447477922     -2.12927497813099      0.09850136187597
  N   5.08842148529243     -0.97119786615864      0.09998358039709
  C   5.76276210797465      0.22036367286903      0.10108091427482
  C   4.99442507914092      1.33843437769858      0.10334528417859
  C   3.51562177293061      1.25842610895800      0.10470809253843
  N   2.73034690397739      2.27367389231365      0.10637010175702
  C   7.13988032783891     -0.25045686059371      0.09961941213141
  C   7.18499057395414     -1.61338653001126      0.09818216922035
  C   8.62194668020259     -1.99145772990598      0.09738781698148
  N   9.40433758624075     -0.98637486461246      0.09803918886851
  C   8.55925503451684      0.21287735288117      0.09968782019935
  O   8.99219311864992      1.31929013077581      0.10083060479745
  H   2.78096583819314     -3.04662976046052      0.10136545035309
  H   5.03571445986191     -4.20449737338497      0.09778892930416
  H   5.44674431487802      2.32025922688885      0.10433762646699
  H   3.25726551934214      3.14309074522743      0.10646363715301
  H   8.99835035506874     -3.00777970795496      0.09614515749435
