24
Coordinates from ORCA-job 11907optt
  Br  5.14836641114190      1.38492700668237      1.80992712722642
  C   3.67488042745287      1.38075735310414      2.95408402622025
  C   2.95652578340717      0.29016149147358      3.27463558646002
  N   1.73729691634900      0.41469038117624      3.97456501715061
  C   0.99947996531963     -0.77926105405716      4.41947942854023
  C   0.91685603912982     -1.74723671252725      3.25229732747587
  N   0.86436302561181     -3.19209013120967      3.57253649929374
  C   2.09732850309178     -3.45173704309139      2.76876900386314
  C   2.31193833779146     -1.96936487144629      2.76436814961480
  C   3.30599913332004     -1.09334193094341      2.87657202942279
  C   4.65746024490059     -1.55353703683993      2.75847155496686
  N   5.70076494314564     -2.02498801233399      2.68802270728344
  C   1.17074378911417      1.63581284594599      4.17575737601117
  N   1.67806333841520      2.78687936142954      3.96615018032786
  S   3.26685246082752      2.95974450289047      3.62924487712350
  O   3.41704354459045      3.95219834643363      2.62045052345076
  O   3.97288001979662      3.08184316216346      4.86402192631064
  H   0.02700359509701     -0.45238191492118      4.78114660848505
  H   1.53134910713847     -1.26727269196972      5.23785603780981
  H   0.20509931130773     -1.41447571212295      2.49102749630931
  H   0.03584126338059     -3.66848038295395      3.23999743669230
  H   1.90423227989614     -3.85746581443824      1.77205114141457
  H   2.85940064985099     -4.04957124312298      3.26817347228924
  H   0.14723090992332      1.59219010067869      4.53939446625752
