24
Coordinates from ORCA-job 11902optt
  Br  1.06251052627475     -0.05794946424650     -0.69608572876053
  C   2.91099123103973      0.07572745199695     -0.41026993337176
  C   3.74115121929639     -0.99122324956678     -0.37236497176762
  N   5.09502353483330     -0.77703246669807     -0.25548511416203
  C   5.86464123011574     -2.00701037662993     -0.38639381492753
  C   4.77164785477549     -3.05854591120005     -0.26710267273178
  N   3.51215582383229     -2.36243133348556     -0.48813676972640
  C   2.44306705965947     -3.00522140866542      0.29143065230177
  C   2.98030859924105     -3.18308517919277      1.71066651469344
  S   4.64305804558995     -3.78903349677088      1.43168479148576
  O   5.59502624789871     -3.16480734384982      2.30873137573427
  O   4.61338451813096     -5.21800962600722      1.28814647096063
  C   5.58198636558728      0.49017500941678     -0.18079098016523
  N   4.86355158428865      1.54421163546394     -0.18025879799618
  C   3.46150872342258      1.43980667729396     -0.29938328461803
  O   2.76388345000074      2.42193372423383     -0.31999626593901
  H   6.60356406548904     -2.09713607694958      0.41018332825724
  H   6.35253721194456     -2.05785710249346     -1.36024271033640
  H   4.89343740365874     -3.91280800519109     -0.93101614754223
  H   2.23465192966443     -3.97282439105464     -0.16527113221654
  H   1.54224642938191     -2.40405173867122      0.26775427958856
  H   2.44911421011004     -3.92566020382422      2.30097279943144
  H   3.04820581503534     -2.23291825330987      2.24004106816238
  H   6.66434692072881      0.56175112940163     -0.10881295635422
