22
Coordinates from ORCA-job 11914optt
  Br  0.82781980090619      0.27329405860775     -0.24097088247476
  C   2.68907122326115      0.14910345383697     -0.09594971462145
  C   3.46461536503659      1.25114219597902      0.01891561502024
  N   4.84393949087542      1.19582544073181      0.11395500752710
  C   5.48065578388937      2.50836657582206      0.22061060643775
  C   4.26926689413231      3.38258746660110      0.18665499186618
  N   4.00249063476945      4.64441633732033      0.24127808551159
  C   2.62243766397315      4.70410582731491      0.15670799603768
  C   2.06822190115430      3.46213638813160      0.05072378189375
  N   3.14813034626235      2.60318897086755      0.06960634816808
  C   5.45192343593421     -0.01253331954733      0.10376980691503
  C   4.74071177783450     -1.18714890227556     -0.00189711300604
  C   5.64733796071074     -2.28458065565783      0.01742732490586
  N   6.91225448605763     -1.99405010654420      0.12636560860122
  S   7.12671391714866     -0.35353445551773      0.21596488293104
  C   3.28153074124745     -1.20262223467214     -0.10780514873351
  O   2.62401154691616     -2.21826484072005     -0.19285874118902
  H   6.15503217346967      2.68362785300659     -0.62050392826705
  H   6.03896405045463      2.59358531599594      1.15546923401128
  H   2.10379321993466      5.64750654879906      0.17918085870708
  H   1.05460700077836      3.12012907357964     -0.03127091853850
  H   5.34047058525300     -3.32028099165952     -0.05137370170357
