23
Coordinates from ORCA-job 11919optt
  Br  1.06298773106923     -0.13346229105902     -0.26783676931482
  C   2.90507762192760     -0.24006647576135     -0.11944568027030
  C   3.63157117979890     -1.37592866125905     -0.03617057998880
  N   3.25468295374875     -2.68226895433150     -0.02769725693977
  C   4.38773629155968     -3.34702123193847      0.06136957637768
  C   4.37788874957558     -4.82166819020029      0.10309261298106
  N   3.35021546150792     -5.55295544224513      0.05629341437518
  C   3.82259334634696     -6.93664534130210      0.12869066158523
  C   5.35526230515283     -6.82154743840246      0.25578046856411
  O   5.59616564574739     -5.40638151025551      0.20377987229116
  C   5.57384043097913     -2.50765217864222      0.11417114880073
  C   6.94079277968562     -2.86657774061007      0.20524926754592
  C   8.11024238840259     -3.11954697063476      0.28018152961990
  C   5.07080039290603     -1.23072690928246      0.05391596203395
  N   5.66951165606519     -0.00020367898044      0.06317602517436
  C   4.88703054863620      0.99503436927943     -0.01209438040131
  O   3.52608298739445      0.94482466110857     -0.10430526790747
  H   3.51311675326061     -7.47328397525911     -0.76902451410597
  H   3.36395472019155     -7.43392349006411      0.98359624212067
  H   5.89614967199061     -7.29004890253042     -0.56469133620269
  H   5.74114253816013     -7.19717410556004      1.20252268010720
  H   9.14446367642930     -3.35813490472368      0.34476499662012
  H   5.22469016946368      2.02135936265424     -0.01231867306614
