25
Coordinates from ORCA-job 11911optt
  Br  1.45739211884063     -0.19089925972457      1.02874572603228
  C   3.13819753694223     -0.11101209726237      0.23432055938154
  C   3.91977444329753     -1.18788854444101     -0.02539103484633
  N   3.86024884690847     -2.54661704015543      0.27422376016438
  C   5.26429514667081     -2.99429809728509      0.53033456337083
  C   6.06533804617631     -2.14293460011436     -0.48993925037891
  N   7.35825690337551     -1.53372794893197     -0.18044296346622
  C   7.35500996513492     -0.07316882573794     -0.44589651139688
  C   5.87821230493323      0.22939762618178     -0.48517490473173
  C   5.05478927691353      1.36344430910065     -0.25849073414628
  N   5.23950892072364      2.67008977866230     -0.24416238278251
  N   4.05340113038416      3.20742188120961      0.03527372617749
  N   3.13530741852851      2.31925153580197      0.19579416612263
  N   3.72482167216061      1.13056742628373      0.01756303365592
  C   5.21906653922255     -0.93386313974963     -0.50196927895659
  C   8.52714720746941     -2.25148493209269     -0.23834098876375
  N   9.71853638141277     -1.82523963750686     -0.29056612563086
  H   3.16705904867828     -2.82752127333579      0.95389188999837
  H   5.34823369405801     -4.06593640104670      0.36963408111364
  H   5.58367146330602     -2.74132125926673      1.54619408989488
  H   6.07507856559397     -2.65850396630545     -1.45790262032332
  H   7.87118465994598      0.15954746238485     -1.38443798948917
  H   7.85329756248754      0.47209117021041      0.35812634193884
  H   8.35836356339414     -3.32955689815910     -0.21049193726510
  H   9.77380758344118     -0.80783726871959     -0.30689521567313
