24
Coordinates from ORCA-job 11913optt
  Br  7.10736194987186     -0.10970618479120      2.90936137223270
  C   6.19184799787339      0.20287579639308      1.31124042216541
  C   6.57869063325302      1.05117418046516      0.33193626682008
  N   5.73485280896130      1.15465933035431     -0.76330280524039
  C   6.13463006082322      2.12819905042133     -1.75839448175741
  C   7.50367727575783      2.53927338004795     -1.29450673551390
  N   8.30527256702276      3.11862198656847     -2.10046842960951
  C   9.52079612843235      3.34473413795451     -1.41786908518696
  C   9.47530325388653      3.97067662514027     -0.24281993943535
  C   9.87415949757092      3.09855302536228      0.88084593659293
  N   10.95237753943079      3.05339591970576      1.53575956490821
  C   8.72836512583599      2.13483631377645      1.01409621955010
  C   7.72524716326149      1.96680132114546      0.11638843406681
  N   4.57844522021004      0.52784841410787     -0.91209649351181
  N   4.19055799367629     -0.28335204689624     -0.04620073234474
  C   4.95542344599667     -0.55835202260995      1.12718781365146
  N   4.55559758275436     -1.42118848953567      1.96419831335686
  H   5.45129264292088      2.98083835964716     -1.76280144943179
  H   6.16314702838877      1.68928280637636     -2.75345194190569
  H   10.35003661915087      2.71593707380823     -1.72858271968654
  H   8.57203773231585      4.54300149298841     -0.04760444826451
  H   10.94421530640700      2.28517488611039      2.20876051164901
  H   8.73764494556990      1.51248976900971      1.89900862139751
  H   3.67901948062785     -1.82577512555014      1.63731578549752
