23
Coordinates from ORCA-job 11918optt
  Br  1.02205122143404     -0.15491820497208     -0.60303992049666
  C   2.81914694231718      0.04965718354223     -0.14517045536032
  C   3.43316770738778      1.25294361768986     -0.09216568189606
  N   4.80235571204822      1.36519035493397      0.06340259056601
  C   5.30007824762812      2.71347311697049     -0.19225838090179
  C   4.01296103879319      3.46995239324992     -0.28017174680710
  N   3.73441824171812      4.70201296501059     -0.26769127754353
  C   2.26563611616794      4.73878195138905     -0.26179848924079
  C   1.72739432997735      5.70650042150427      0.69249110787675
  N   1.26560157778904      6.43861704140316      1.44160903148286
  C   1.79995793843000      3.29767101750098      0.06013585520139
  N   0.74610964460334      2.85075253172636      0.55353993677483
  N   2.95719797667911      2.55840743511692     -0.26856290692946
  C   5.58026031261301      0.25653846812056      0.21835868180753
  C   5.03505318598883     -0.97058662501045      0.26311468943438
  C   3.60061211620146     -1.18522481793155      0.07657203360291
  O   3.09716115088798     -2.29019513435595      0.07695887599082
  H   5.86279140059692      2.76134426670516     -1.12727522835031
  H   5.91834234521993      3.08639223948325      0.62386770557938
  H   1.90605827973994      5.00920409250079     -1.26065657990264
  H   0.08340427460535      3.59548367481208      0.76488076987336
  H   6.64197275020604      0.44270403214424      0.31166996691033
  H   5.65226748896709     -1.84470202153388      0.40718942232809
