25
Coordinates from ORCA-job 11924optt
  Br  1.06634300265566      0.50196833008458      0.14638569920040
  C   2.89046157767764      0.19067746486656     -0.10422354368474
  C   3.40657017440505     -1.04697366983666     -0.04919002051487
  N   2.87750717640488     -2.27447336094424      0.17394081314994
  C   3.80024178527968     -3.32683446746792     -0.24668870915623
  C   5.18702550188748     -2.66815583817265     -0.08555922989779
  N   6.19165426121239     -3.16637966877995     -1.00981306014643
  C   7.39275806141675     -3.20181629795766     -0.32235081976016
  N   7.34601379238263     -3.06624799332160      0.93652220535195
  C   5.94447722692361     -2.85581933239924      1.28708214006969
  C   5.47122894160220     -3.98881906524771      2.18636164168571
  O   4.32977053470590     -4.15075350021341      2.51184855324940
  C   4.82805856178909     -1.20664320401993     -0.27884289065944
  N   5.64005849668562     -0.28821322670922     -0.59097050004643
  O   5.11555372717727      0.97982915686497     -0.67477164286710
  C   3.78365800314195      1.29984687815585     -0.39740087931168
  N   3.42303861074604      2.50401097706047     -0.44135028051405
  H   1.87922952153691     -2.41025094159320      0.18793278680076
  H   3.66293359143476     -3.57723446823615     -1.30396588491161
  H   3.67325350574577     -4.22040099211981      0.35303361991940
  H   6.19324137322130     -2.78032813285451     -1.94380381404592
  H   8.30855337877796     -3.38851861251438     -0.87042785441823
  H   5.84683734246164     -1.94841712531279      1.89131591061953
  H   6.28254754557670     -4.64358780941677      2.55169831995798
  H   4.20198430515095      3.11553490008544     -0.67576256007007
