22
Coordinates from ORCA-job 11930optt
  Br  2.03820076176678     -0.42185059406817     -2.06205240414451
  C   3.90925629719608      0.11306245436951     -1.97600252934663
  C   4.13312535616532      1.43831662562566     -2.64225105659658
  N   4.88536843249060      2.35210787301465     -2.21622455512755
  C   5.85316447453945      2.07638918109352     -1.20503714019945
  C   7.07772375683257      2.04610370017380     -1.76077029018477
  N   7.29800110389469      2.44676696998190     -3.08053600457584
  C   7.74309249856239      1.23829155567281     -3.59471577713536
  N   8.29852237362992      0.48329493613750     -2.72168667219651
  O   8.13396087374118      1.23016142943710     -1.47598839911496
  O   7.43831593634184      0.90224139932378     -4.86931269301860
  C   6.10295294047310      1.27171323788248     -5.08856628840433
  C   5.10361547680880      0.67647594641748     -4.44116775327372
  N   3.90182350881167      1.35308757160009     -4.07769346765188
  H   3.06856731658547      0.80860738530392     -4.28914790861931
  O   5.33988502351406     -0.55565318042581     -3.86325178583908
  C   4.75543127407741     -0.94505409123190     -2.69330407475036
  O   4.92723379174279     -2.03686598593314     -2.27291747113250
  H   4.17651186348830      0.09849145361318     -0.92534131238194
  H   5.63368145681547      1.68560848508756     -0.22257101292145
  H   6.52087681817431      2.91027482264015     -3.52576520045488
  H   5.94468866434773      2.17642882428391     -5.65669620292973
