22
Coordinates from ORCA-job 11934optt
  Br  1.00722235488538      0.01568047775567      0.12510220370364
  C   2.86472473216626      0.05077768005425      0.03123605383480
  C   3.56119625911590      1.21225066637343      0.00265300625067
  N   2.88672188923145      2.43002802201107      0.00463579647034
  C   3.57186185956912      3.49810172276576     -0.04000998230183
  C   5.04520001348648      3.57643917733615     -0.05252942784022
  N   5.57912863780991      4.74361198426375     -0.06469273858190
  C   6.97982072694074      4.88056051064726     -0.05140887398677
  O   7.50448031994984      5.96497957691965     -0.10868077540255
  C   7.73411343519277      3.62736732784913      0.05092885185510
  C   7.10195809758125      2.44850954616929      0.06005745110879
  N   5.72416739316541      2.38366781503283     -0.01998965579653
  C   5.01528107021901      1.15804185983246     -0.05266096538618
  C   5.61033240555357     -0.03754522901725     -0.14036655811489
  O   4.91655634745793     -1.19112204228926     -0.13822062171156
  C   3.54124516133114     -1.24791541938164     -0.01912772561586
  N   2.94549588049262     -2.35302694836117      0.02351104152267
  H   3.07155536620706      4.46128458484131     -0.05645372496494
  H   8.81025860185462      3.67835172299608      0.12460018812791
  H   7.62488403130538      1.50965225841265      0.14914613895252
  H   6.66911784220900     -0.21734798233471     -0.22894358126601
  H   3.59967757427512     -3.13034731187673     -0.03378610085718
