22
Coordinates from ORCA-job 11937optt
  Br  1.15511381696985     -0.17839108414217      0.28293326290128
  C   2.99689184354988      0.02487838375701      0.03530264585783
  C   3.61217045025675      1.21790545793980      0.12536371781773
  N   3.01953628339467      2.43305945324875      0.45898600923149
  C   3.52121781253911      3.55786396404321     -0.31452709130332
  C   5.00957567283428      3.65597116857269     -0.14140696763587
  N   5.59712639058599      4.78216884977135     -0.16126082974800
  C   7.01001917754597      4.81597153550287     -0.09273544340286
  O   7.62376744851126      5.79379742793793     -0.39665950252373
  N   7.67079909064693      3.65137074727916      0.37753511520408
  C   7.02557976844827      2.56273445932219      0.38151058510941
  N   5.68853607064793      2.45316948198163      0.02273992154242
  C   5.04043396366186      1.21139205132345     -0.08526883193051
  C   5.70225478159709      0.06854756024709     -0.36692601655859
  C   5.00656387754588     -1.19960014163341     -0.41498273710493
  O   5.48104855445680     -2.27212785061759     -0.62694333352272
  O   3.63093654039813     -1.12664341837338     -0.19494847000073
  H   2.01121872560191      2.38637336144667      0.50770970908209
  H   3.09397937310267      4.48827720095391      0.04902596070314
  H   3.30459741591096      3.47006954636669     -1.38815279588878
  H   7.48564597908675      1.64144537226501      0.72526735782548
  H   6.75798696270702      0.03276647280711     -0.58656226565490
