21
Coordinates from ORCA-job 11938optt
  Br  1.14597595454889      0.07189813731650     -0.17977469672626
  C   3.00720611032422      0.00135171857918     -0.01083293589619
  C   3.73354423708709      1.14991719831050      0.05714424918972
  N   3.03859143433991      2.36212022044899      0.06098800923674
  C   3.67018999529603      3.46100798348500      0.11194975131593
  C   5.13519506912843      3.58456603760510      0.08488067877296
  N   5.68407051694470      4.73776410872286      0.05460730545015
  C   7.09642531771693      4.79351991559252      0.03695436807622
  O   7.68873525467264      5.78047522728794      0.35630406388894
  N   7.77535253920405      3.63347000421651     -0.41367579726594
  C   7.15550332567883      2.52745785058285     -0.37217979093014
  N   5.83398877277547      2.39944565422021      0.01572786595017
  C   5.18741025884052      1.14783938561872      0.17704263051269
  C   5.90125974359055      0.05137668804433      0.46990460115965
  S   5.24562935203359     -1.53079249049654      0.57326729238030
  C   3.57159798143458     -1.35808751867274      0.00591371843819
  N   2.87770019779090     -2.37395902391281     -0.28470560467971
  H   3.12355638795772      4.39826192340441      0.14714692480523
  H   7.63421725484656      1.61027184792539     -0.70079790742167
  H   6.96124863687368      0.09235821010039      0.68019444716156
  H   3.40060165891468     -3.24626307837932     -0.23305917341854
