26
Coordinates from ORCA-job 11931optt
  Br  11.92289819484412      6.12982548835177      1.61703304200908
  C   10.61367401006680      4.80440757020162      1.85030079018082
  C   9.31738369738702      5.00398903555026      1.44345080082779
  N   8.88056914976503      6.17238368551391      0.85579258606924
  C   7.78284546361937      6.05442669275014     -0.08706703882574
  C   6.56625475623878      5.49601105822773      0.63813280717539
  N   5.54333168694906      5.10975505568530     -0.34151138833045
  C   5.56588398930059      3.85099220452037     -0.38070535899237
  O   6.38709111377445      3.17543389269468      0.45525038024445
  C   6.90224189833658      4.18060480350470      1.36253044051965
  C   8.35692045403300      3.95780913424845      1.67018786577981
  C   8.74702099778495      2.79018405182567      2.23804560196814
  N   10.04214258821057      2.59831496245391      2.60108367071979
  C   10.67593531364012      1.51783091465985      3.18231841119784
  C   11.97398721961379      1.91269291481045      3.34121242122849
  N   12.18170277075577      3.18320754960586      2.89085249235504
  C   11.01122974790539      3.58624966482130      2.44714353960814
  H   9.62404716586902      6.80017477465457      0.58765301969473
  H   8.03268888111772      5.38333224085851     -0.91945684313577
  H   7.55345079752429      7.03542698876835     -0.49723765749676
  H   6.17936009403043      6.24198559358064      1.33047072701006
  H   4.97792137095707      3.22919166630253     -1.04372419573102
  H   6.31307401227141      4.09279957172599      2.27868545244434
  H   8.06006873963729      1.97722940956288      2.43047248007974
  H   10.14938282306959      0.61052432242088      3.41772050365801
  H   12.77889306329771      1.33521675269963      3.76636544974155
