22
Coordinates from ORCA-job 11940optt
  Br  1.17558606197707     -0.01923515989689      0.44447915667029
  C   3.04274044317902      0.00265017775208      0.22740503823722
  C   3.70993833097493      1.18829232478248      0.23580310865238
  N   3.12366020421782      2.40825181905449      0.47683238660239
  C   3.62301803179522      3.57899866965872     -0.22154181060951
  C   5.09544239236461      3.66755194624330      0.01577959723231
  N   5.70263769695927      4.78316485244589      0.04792682892337
  C   7.09021744242611      4.77747558154088      0.24828023330181
  O   7.76175054787016      5.75268725125119      0.27197600712838
  O   7.71471784677577      3.55927272551074      0.43412136101669
  N   7.06038125623194      2.36286610367524      0.40177334912089
  C   5.80417462655527      2.40391422269379      0.18421792498348
  N   5.09025303074781      1.20488576107811      0.05642469764360
  C   5.77781720344474      0.01152550926917     -0.12950535307389
  C   5.15629167943407     -1.17009157015887     -0.12840362599667
  C   3.70892889375955     -1.28616110213622      0.06653087799830
  O   3.12672649800025     -2.35202493946981      0.06883562333369
  H   2.11850014213464      2.34724784580021      0.55804030367259
  H   3.14610068117960      4.47634078151748      0.16500690004344
  H   3.45022972982610      3.53306217744070     -1.30571548987997
  H   6.84032363315744      0.12999027145824     -0.27322429915177
  H   5.71256362698856     -2.08166524951095     -0.29004281584901
