23
Coordinates from ORCA-job 11944optt
  Br  1.26570620004739     -0.22596697191961      0.33486132528331
  C   3.13423481668281     -0.09760230225122      0.19341747234942
  C   3.89397193557041     -1.22623062444144      0.05350955629155
  N   3.76000004858735     -2.57255689873630     -0.03497690729560
  C   5.07477573775099     -3.26787005253158     -0.14612221770728
  C   6.01019410154446     -2.07532737287953     -0.14648861623175
  N   7.24748167968506     -1.67098956631669     -0.19644246169337
  N   7.24521734811682     -0.28870907663843     -0.10927215952413
  C   5.98913038731095      0.11363489008858     -0.00434747349468
  N   5.21758150796090     -0.99857095774793     -0.03135848308415
  C   5.19361875081978      1.31380249655529      0.14217783575124
  C   3.82560178922110      1.14880500489407      0.23329773639922
  C   5.84756935882332      2.63317975369556      0.18328501178355
  O   7.02881900810366      2.76292130947479      0.00773037878777
  C   4.99100613949739      3.88880525997086      0.42867685057746
  C   4.27708947989431      3.86347858554455      1.70094408718723
  N   3.71120908160862      3.82675398958828      2.69644194094466
  H   2.87926242052447     -3.04726467567128      0.05943430824537
  H   5.12851606142464     -3.84955043499844     -1.06661181096350
  H   5.24013236316781     -3.92963029271504      0.70497164317879
  H   3.20025949239374      2.02436888532433      0.35238400952195
  H   4.26587082783288      4.01238258910347     -0.37896965350760
  H   5.67275146343105      4.73713646260771      0.41145762720053
