20
Coordinates from ORCA-job 11946optt
  Br  1.17976105135790      0.20157874004015     -0.08373861723491
  C   3.01613979073813     -0.15773430076342     -0.08091049125995
  C   3.43662082616007     -1.44390323659811     -0.07710301265465
  N   2.65185840948492     -2.59192621753017     -0.07417745862608
  C   3.46132758022474     -3.58691810675799     -0.07076125992092
  C   4.85674472986253     -3.17906099431037     -0.07143183144140
  N   5.81631782084773     -4.00964415933819     -0.06903595366502
  N   7.10595184857838     -3.71672668492407     -0.07001771915236
  C   7.79633665184969     -2.48505181049716     -0.07492234591905
  O   9.00114174454410     -2.57724421747427     -0.07569733114553
  C   7.13474944233248     -1.19083435461176     -0.07834452346799
  C   5.82039671464605     -0.84740731495668     -0.07832624584071
  N   4.78318217791656     -1.76478124191848     -0.07545859434973
  C   5.35366361538997      0.53672568291575     -0.08111509574275
  Br  6.66676660562677      1.87978657157488     -0.08248321512622
  C   4.02852237473477      0.86094357375015     -0.08234733238724
  Br  3.46852147207814      2.64923775126530     -0.08519770891932
  H   3.14259302587822     -4.61991494898287     -0.06776297672975
  H   7.71792725217833     -4.51883963188766     -0.06799012399255
  H   7.86047686557047     -0.39728509899502     -0.08117816242386
