24
Coordinates from ORCA-job 11942optt
  Br  1.03338930960779     -0.12643276287855     -0.16643657686291
  C   2.91243641035368     -0.06539237407377     -0.13323118507095
  C   3.55586428597842      1.12785201680738     -0.12017980397105
  N   4.92807122306891      1.16135588050470     -0.07128078640520
  C   5.48882732595070      2.51839462138654     -0.05268780574703
  C   4.23627889434734      3.32902476334068     -0.10377204404940
  N   3.93110404664877      4.60333196285431     -0.12080132400186
  N   2.58466629840805      4.58942508739699     -0.17177739009048
  C   2.03408674825907      3.35754381426196     -0.18742127856861
  C   3.10656962120304      2.49658699806735     -0.14281131545063
  C   5.72269300304362      0.00517010231149     -0.01538130749726
  N   6.99211659878134      0.00537048818346      0.05399587898532
  N   5.02604739276764     -1.19855201373570     -0.04058980539458
  C   3.73901404683214     -1.23464557137644     -0.09680904154448
  C   3.10725078266173     -2.61208597918186     -0.10468005465095
  C   2.41526846039719     -2.89760677204082     -1.36124942493562
  N   1.87684667605473     -3.12648718322754     -2.34569440676982
  H   6.14335049779570      2.67047962636462     -0.91426600641901
  H   6.06842584720340      2.67388818020116      0.86072874597430
  H   2.09564383967241      5.46916471531291     -0.19506055078603
  H   0.96965249712379      3.20514864983851     -0.22906986145791
  H   7.38521845416640      0.94073199010764      0.06493235734649
  H   2.38144607214191     -2.69831961698008      0.70718008600770
  H   3.89873166753220     -3.34394662344495      0.04336290135997
