20
Coordinates from ORCA-job 11951optt
  Br  0.99990484947598     -0.02443362410916     -0.08205906040786
  C   2.85449510155930      0.03735296709534     -0.09450269008121
  C   3.58424590628748      1.18089692069865     -0.12479779027827
  N   3.26008828787141      2.51740512905126     -0.21340103862863
  C   4.45768469049073      3.37040466272891     -0.06827672459880
  C   5.58184826744792      2.35497011300728     -0.08733672373988
  N   6.83825348614912      2.55322116251638     -0.07786600252993
  O   7.61543955386105      1.40770773766529     -0.07957750889614
  C   7.17197419992667      0.08370853015205     -0.06361281230775
  O   7.99440975018213     -0.77082462686193     -0.04675439242514
  C   5.71338460610383     -0.08593411509480     -0.07684239887321
  C   4.94303777578464     -1.28232093297462     -0.06230388781301
  N   5.21390997894596     -2.57356349755314     -0.03592524660106
  N   4.03983546123698     -3.19471697651637     -0.02284736460838
  N   3.04453577843934     -2.37356757734884     -0.03884016237623
  N   3.57179454487044     -1.14907804621384     -0.06445635330627
  C   4.99423326368498      1.05668708587523     -0.09944912202886
  H   2.36626382498049      2.84359233363434      0.11620706871122
  H   4.45152026306301      3.92181192021454      0.87423262684011
  H   4.53714040963851      4.08068083403343     -0.89059041605068
