25
Coordinates from ORCA-job 11964optt
  Br  1.07386631883687     -0.06658585370651     -0.07317429048267
  C   2.96688074101107     -0.10959347480307     -0.01660241055935
  C   3.65860146665775      1.08908456046771      0.16712242950034
  N   3.19629317114192      2.35660517903525      0.37925208301371
  C   4.30541369132846      3.30535873756133      0.22041643457866
  C   5.58077561089354      2.43945668628058      0.31884964315841
  O   6.47032759674389      2.81471459397418     -0.70410468332405
  C   7.77900667694818      2.30463586994345     -0.58516217200431
  C   7.94009588335205      0.80528662219549     -0.86080450922281
  O   8.71710141167349      0.44181348719098     -1.70005809313091
  C   7.22678894724380     -0.21462560790695      0.02147672883080
  C   5.72373741405780     -0.14983587872953      0.00287355689961
  C   5.04475220110274      1.03879592314404      0.15978150365215
  C   4.91692799010762     -1.28629930961034     -0.15817875443005
  N   3.58107165077380     -1.24863206287499     -0.16923237292268
  C   5.52313992096836     -2.58312450480178     -0.32181868419731
  N   6.05647844110439     -3.59146275803471     -0.44191301846301
  H   2.27009875939847      2.59819891657056      0.06126945860776
  H   4.26653719446648      4.07762176734661      0.98478622586278
  H   4.29545972894820      3.77471923082707     -0.76624927347232
  H   6.07565715133985      2.55870347493854      1.29252027506030
  H   8.17597976684482      2.50614410514696      0.42057027045922
  H   8.38671924313847      2.82839239120783     -1.31898100219738
  H   7.56612506820991     -0.03347992747789      1.04922638383629
  H   7.58116395370797     -1.19889216788482     -0.27786572905319
