26
Coordinates from ORCA-job 11967optt
  Br  1.09492519826755      0.05190412359117     -0.25154545818796
  C   2.94974690297443     -0.16933117008197     -0.16630386586920
  C   3.55377307035463     -1.35193074807941      0.00828683516656
  N   4.92528959619046     -1.37140072023669      0.12603102450866
  C   5.47749534579759     -2.68983633606317      0.41244135313187
  C   4.36448418272961     -3.58955935964040     -0.08866690146480
  O   4.54874133078684     -3.71591359922084     -1.47777456205324
  C   3.42763088328716     -4.22360850188157     -2.14855673630779
  O   2.32929419883896     -3.37955679936325     -2.01581625571815
  C   1.92238727981744     -3.29142011395408     -0.67513609084562
  C   3.06393180967203     -2.77796220672628      0.22036797874828
  C   2.70040837863408     -2.94056936997737      1.62790760069873
  C   2.41232079295398     -3.09313291282126      2.77961901078303
  N   5.70401241230449     -0.30041945133857      0.09809615729384
  N   5.19759945817128      0.82870270328216     -0.08284201842846
  C   3.78914857063260      1.02435148464630     -0.24406368548258
  N   3.31578883931436      2.18566880934778     -0.42366237800689
  H   5.64356863099256     -2.81050491015250      1.48415201856898
  H   6.40291975041934     -2.83870884375812     -0.13758996357170
  H   4.33458812935027     -4.56761588593494      0.40021613546556
  H   3.18159686033762     -5.22167331244555     -1.75403175235908
  H   3.68504345052878     -4.27249699469966     -3.20217888091691
  H   1.64036931717174     -4.28337451133196     -0.29876968388049
  H   1.05866592512951     -2.63755355850002     -0.62730714948953
  H   2.14927982475225     -3.21539598371616      3.80375601890518
  H   4.07898986059041      2.86133816905639     -0.43362875068829
