24
Coordinates from ORCA-job 11962optt
  Br  1.29258166303811      0.22898222367315     -1.85505227167775
  C   2.93136997789378      0.01717108190291     -0.91384812627206
  C   3.26547516873080     -1.24114116599848     -0.39185564956106
  N   2.48596417932726     -2.37105091033870     -0.58986101586656
  C   2.03623550796742     -3.24779077165259      0.48175054645749
  C   3.18326326919194     -4.01268696244727      1.14253380865972
  O   4.03053626584563     -4.60810440774091      0.18163144116421
  C   5.13721413989242     -3.75725173620330     -0.11229526961545
  C   5.16176024247153     -3.40374179420619     -1.54066339237014
  N   5.24161709148245     -3.12799312700784     -2.64890488185683
  C   5.07263958487983     -2.54256514081624      0.84252442747616
  C   4.07769516577189     -3.04221302678303      1.88886087443869
  O   3.99458447760536     -2.70266790734047      3.02824949974242
  C   4.51424450383888     -1.26952140085120      0.25013173758963
  N   5.27603178385545     -0.18917213296636      0.37710482253138
  C   4.83480287971084      0.93589644798926     -0.15826737240635
  N   3.68745715093177      1.07814779037931     -0.81378611926811
  H   1.77109790035409     -2.22161022745960     -1.28607099935654
  H   1.36962964052214     -3.97788790902294      0.02480280992523
  H   1.48134682013306     -2.71384714663278      1.26267920611987
  H   2.79342468919660     -4.78076359352665      1.80893284901533
  H   6.05133195270409     -4.31916436402483      0.09044522299984
  H   6.03688294786444     -2.30985318958257      1.28440969405475
  H   5.45981299679018      1.81482937065735     -0.06645184192388
