22
Coordinates from ORCA-job 11965optt
  Br  1.14991665510928      0.32542986112185      0.73949129880844
  C   3.01022968378923      0.25225746001560      0.50283656351081
  C   3.83876886963263      1.32640129445375      0.42540625898647
  N   5.15065329259021      1.11719133956338      0.10529917618227
  C   6.11189394961544      2.19918522406498     -0.13414965936798
  C   5.42258045738630      3.53827333788185     -0.06427055051617
  O   4.56620465714004      3.75221125678176     -1.18946416102422
  C   3.31101681661971      3.35763105910905     -0.84827512071845
  N   2.26570786004125      3.38782236957574     -1.51980835870134
  C   3.45629761751781      2.80063171382755      0.57530505693430
  O   4.56983779914842      3.53327652004008      1.05060253838959
  C   2.33550947518282      3.10426027201914      1.46212609091611
  N   1.52775032264848      3.43919336324647      2.19812562529687
  C   5.70882359583321     -0.17720552071985     -0.05033222503054
  O   6.88681095522446     -0.27235889925114     -0.29026357367439
  N   4.84786405428857     -1.24671295525498      0.07461475908718
  C   3.60035929184539     -1.03316194570451      0.31763025702161
  H   6.57584095844121      2.03799139986489     -1.10655226956189
  H   6.89444352337401      2.14437688552677      0.62287565974714
  H   6.11827137463503      4.36907251402820      0.00873398212016
  H   2.40895705044250      3.77389644546059     -2.45172999077133
  H   2.95126173949392     -1.90266299565119      0.38579864236538
