26
Coordinates from ORCA-job 11979optt
  Br  2.33053535826735      2.10144969195755      1.35043253805840
  C   3.82758820823188      1.31752015094480      0.51386451132296
  C   4.73108459845722      2.06133463986751     -0.19015124159371
  N   5.75276893013505      1.37491849211486     -0.78894619837876
  C   6.16457973840894      0.09014869824384     -0.48942452819080
  C   5.15554427970208     -0.68440695034956      0.17691268532304
  C   4.03330047695804     -0.08631494013800      0.64897935469316
  C   7.45601843522741     -0.34729621132721     -0.74225237645060
  C   8.43736381426448      0.65811273760245     -1.04589944134029
  N   8.11934196200440      1.77003596959824     -1.62885340218035
  C   8.95493331509592      2.75506414580711     -1.10365399111171
  C   9.90824799880699      2.11925299418919     -0.39264644275801
  O   9.61730747583341      0.77529834464707     -0.36754995179985
  C   8.19270294446309      4.04217767189940     -1.05306740713033
  C   7.09779998841066      3.87357856810872     -0.29460215668683
  C   5.73090913686202      4.37019491730657     -0.43747382066693
  C   4.67828651393469      3.52989450799100     -0.36194689003383
  H   6.43269599197914      1.88105705935324     -1.37080798608967
  H   5.33512655413755     -1.73680978314968      0.34792748560508
  H   3.29461528099709     -0.66524650876350      1.18744800186359
  H   7.73602467326311     -1.34793979743384     -0.45492343246845
  H   10.77262263834985      2.43267588122862      0.16376333499624
  H   8.30166934015425      4.81969418503049     -1.79926990273860
  H   7.14839593753563      3.02078613687882      0.37575393103848
  H   5.54093114486726      5.41506967582161     -0.65640774007468
  H   3.68060526365241      3.94274972257066     -0.44320493320754
