24
Coordinates from ORCA-job 11986optt
  Br  3.80696324287665      1.36563982399028     -2.12411623261798
  C   4.54825476250452      0.87187257823459     -0.46214851426629
  C   3.92326894625345      1.23877681542106      0.67281320845665
  N   4.18866633955845      0.55731626582929      1.83682284601958
  C   4.87919492559920     -0.64078086698786      1.76660042479261
  C   5.63790994015789     -0.94031747420629      0.69891057382722
  C   5.80119922027543      0.10067321076755     -0.32139660963334
  C   6.98098106834812      0.58282739037142     -0.77643725012915
  C   6.93602162794078      1.98111581684718     -1.17366569996627
  C   7.65070165929673      3.01533378932896     -0.71445746442910
  C   6.99640105579013      4.34976088573645     -0.60893741725282
  O   7.58311908437896      5.37126100537498     -0.38742202227485
  N   5.55582657591018      4.32538860694349     -0.68373786197083
  C   4.96965050359756      3.70211856586659      0.22478400329478
  O   3.59615639266837      3.59603018454866      0.26388077532285
  C   3.04651066976437      2.45810468347020      0.79171223137241
  O   1.98802306751456      2.47815742218521      1.32908747053946
  H   3.63386860535433      0.77718346698494      2.64868768788516
  H   4.78794695311712     -1.28727460095468      2.62680194733519
  H   6.19596802674247     -1.86520868430796      0.66443316995199
  H   7.90776768076090      0.07872865521655     -0.53183124307560
  H   6.04020934640044      2.27124041055521     -1.69662915033632
  H   8.61599297411352      2.93312168525380     -0.22909167968147
  H   5.46339733107579      3.21993036353035      1.07033680683608
