25
Coordinates from ORCA-job 11983optt
  Br  2.63652982482168     -0.61754486730174      2.30681096657818
  C   3.86789398203931      0.36060736924634      1.28279404371880
  C   4.15110785134806      1.69437386838478      1.81349181110053
  N   5.10804985658793      2.38520820527575      1.07694217049440
  C   5.73963646615104      1.91809500004442     -0.02691237604408
  C   5.45303434003846      0.69014758721836     -0.50601098956513
  C   4.46221649082438     -0.11339056765989      0.14861034000344
  C   4.17609015005861     -1.41974063325294     -0.48353188428249
  C   2.98313056252097     -1.87288957156762     -0.88078181955442
  C   1.70721576730989     -1.18645936500028     -0.70705747208566
  C   1.46128692355450      0.11586127158352     -0.95016054496178
  C   2.40852884597146      0.93265834542139     -1.75173045723592
  O   2.30734130952344      2.12529371610125     -1.87825854573446
  C   0.29093315136964      0.84022403097757     -0.48281051000721
  C   -0.42673221089101      0.41770076974459      0.53969329025204
  O   -1.05814860000062      0.04416660692162      1.42504467539561
  O   3.64022138419244      2.20558560010055      2.78538687017970
  H   5.30877096242067      3.30986456115211      1.43112244165445
  H   6.46090588261476      2.58095129879889     -0.48284772865813
  H   5.94341849745003      0.32168568804577     -1.39448887731221
  H   5.05190547945359     -2.02795376864662     -0.68772464185081
  H   2.94285463650276     -2.87215372368637     -1.30280612471460
  H   0.91770077101368     -1.78987340034752     -0.26505151252298
  H   3.19628550865885      0.36967663903091     -2.27590430529800
  H   0.05682216646532      1.81690533941513     -0.88381881954928
