26
Coordinates from ORCA-job 12002optt
  Br  3.02985430425872      2.59624165852691     -1.22275489381901
  C   4.44661044856119      1.38154215745126     -0.95848910075739
  C   5.73248042474550      1.70355671826036     -1.28800485386097
  N   6.69978145559803      0.77428692369273     -1.08527315599780
  C   6.58098791724241     -0.35032344061085     -0.28972879424688
  C   5.21365405639314     -0.71808112785742     -0.03644795198174
  C   4.19749649031060      0.11184248734629     -0.37102474231556
  C   7.63564398018303     -1.08231003683492      0.20078930035533
  C   9.08294389780100     -0.94086211754531      0.18716477026935
  O   9.78446135643614     -1.88415736533440      0.50790158629961
  C   9.84212920972986      0.34973659270659     -0.19943284023846
  N   11.04242383854072      0.27592104458174     -0.58781596894861
  C   9.12144272548213      1.63351185826184     -0.17446112675156
  C   9.16888984412583      2.45205339920840     -1.22996309964263
  N   8.42307207272625      3.59374933965531     -1.43496043239539
  C   7.20161521264565      3.76995113191606     -1.68110163529472
  N   6.08878045959466      2.92678661031562     -1.83605766148339
  H   7.63246761232187      1.02597924451417     -1.37808506078642
  H   5.02311647427383     -1.65653203297471      0.46334535787839
  H   3.17467418603821     -0.16235546521519     -0.14885971392460
  H   7.34359530615795     -2.01124404923943      0.67429961741215
  H   11.33347770530834     -0.70612399395532     -0.56261926522952
  H   8.41039703206622      1.80773862513955      0.62637894164082
  H   9.89594836749325      2.24965579185042     -2.01356321888874
  H   6.88773602975472      4.79451102098567     -1.87348123799162
  H   5.26831959221062      3.45392502515463     -2.10075481930064
