27
Coordinates from ORCA-job 12004optt
  Br  1.79876812962638     -0.91235189342423      1.00459434019680
  C   3.24460831954628      0.29339619092533      1.16349362389683
  C   3.46367786639074      1.28601233257546      0.20501086857966
  N   4.64736739873536      1.85863348094679      0.05208623174946
  C   5.60204016867152      1.58766119895685      0.93671710421319
  C   5.29613530182721      0.96902005156915      2.13915144116835
  C   4.05334995171391      0.35250838038759      2.29050394704782
  C   3.43775926095184      0.16701407086105      3.64806522859600
  C   2.49960449431220      1.38031636677279      3.87301297840342
  O   1.21074480854090      1.09840542542533      3.33670233114781
  C   0.54022457170248      1.74408842698597      2.36275273086576
  O   -0.52403078168014      1.30574648415729      2.03477899651211
  C   1.03705446534330      3.05368787276919      1.72031487458270
  O   2.21511834655930      3.01192584608626      0.95615591635980
  C   2.28029228652183      2.15227110496136     -0.17576997746274
  C   2.52197669089624      2.95294386336930     -1.44389308420670
  O   2.30999014693564      4.12302559789833     -1.53752116477274
  H   6.58713006199384      1.99141484183068      0.73746117068067
  H   5.98710874225773      1.00870990380824      2.97165722370385
  H   4.21080747042437      0.17094751606684      4.41629465816792
  H   2.85094016000414     -0.74580063696026      3.74237579779685
  H   2.92530837377935      2.28320942920324      3.42982812056779
  H   2.35281460836217      1.53689403922346      4.94173671229633
  H   1.22514835851372      3.78951898547627      2.50471376872649
  H   0.19041090048973      3.38938290853758      1.11937665400036
  H   1.35841044528491      1.57417118974626     -0.30318000130460
  H   2.88223945229503      2.34924702184385     -2.29742049151321
