28
Coordinates from ORCA-job 12003optt
  Br  6.52163887623844      2.04637658717142     -2.65002646833831
  C   6.22256050726027      2.15650288040690     -0.77677333545279
  C   6.43339367802013      3.30968449930147     -0.08060146359916
  N   5.90853578171435      3.25104628789453      1.23772336597448
  C   6.46861573747149      2.16295280264290      2.09836103133026
  C   6.93013001678346      1.00979937324716      1.25750081058546
  C   6.49409270441822      0.92974501567722     -0.02604872524855
  C   8.27814707526816      0.49394388836657      1.60315996662120
  C   9.20685857749860      1.07581787552862      0.84333136252998
  O   10.54066647143070      1.12000871744024      1.12912843473930
  C   11.33975128409461      1.98154023675043      0.42761795055732
  N   12.58764488880228      1.85296043683611      0.40401053692804
  N   10.67650658913486      3.01580398455683     -0.29504667377802
  C   10.65367933072944      4.31930363642931      0.35771349227921
  N   9.65288614969472      4.96510670811980      0.75173965409382
  C   8.32807092273302      4.53467842419956      0.72849262481413
  C   7.62310589332764      4.10192788728312     -0.32710066585249
  H   4.91942813004481      3.06329590373980      1.14484999855531
  H   5.65228550080041      1.87678835591032      2.76225912927760
  H   7.28490192570312      2.53226584522295      2.72041456235170
  H   6.79013496654446      0.08390583856672     -0.63395125526531
  H   8.51881228547880     -0.00114144094974      2.53611402179815
  H   8.93271194779076      1.63945530405544     -0.03597950569871
  H   12.88056588305747      1.01802189587676      0.90833196678397
  H   11.24022216367358      3.13959501609247     -1.13177428888265
  H   11.63874030504502      4.77148445896771      0.47823714917841
  H   7.84468021451817      4.59928853374447      1.69714300402283
  H   8.07023219272288      4.05984104692084     -1.31182668030516
