23
Coordinates from ORCA-job 12013optt
  Br  4.53837599220046     -1.88875167348188      2.42919210063945
  C   5.24247566990325     -1.19379875371866      0.84597506055078
  C   6.45972786407621     -0.27502424924639      0.93689492295241
  N   6.35389361085964      0.66237910108431     -0.14791232543110
  C   6.31337917046471     -0.01683238867514     -1.36637114547643
  C   5.44647904472176     -1.02889251623803     -1.53337676304730
  C   4.72890054072471     -1.50511372492777     -0.35891264913726
  C   3.58938732440210     -2.35350784854606     -0.52339387062081
  N   2.67675471388042     -3.02548371931968     -0.70056439169455
  C   7.45144849829202      0.02912691315405     -2.29149085592754
  N   8.66626160802400      0.12565353339972     -1.95293169168413
  C   9.23355479291918      0.24262473316859     -0.66752718713033
  N   9.00100089733975     -0.25547752475541      0.47303114731639
  C   7.90386047725416     -0.95662329474865      1.06619116550309
  C   7.79897852219660     -0.47547903164355      2.53300887657067
  O   8.40186822914522     -0.65891699166309      3.53941455390151
  N   6.69338280144519      0.30540694904715      2.23332610154710
  H   7.07203526918223      1.37326453673792     -0.09481067941983
  H   5.39707438582386     -1.58506654306676     -2.45905038227310
  H   7.23454674919848     -0.18960448317415     -3.33667888366519
  H   10.16475949516578      0.80355593768492     -0.73650221622523
  H   7.95655550604567     -2.03757243816929      0.93029061489440
  H   6.00329883673455      0.68313347709787      2.86919849785700
