26
Coordinates from ORCA-job 12014optt
  Br  4.21425993270193     -0.09361180809924      2.22645576523810
  C   6.08380235758488     -0.59183654957168      2.36955479985305
  C   6.71763602865531     -0.14677402548013      3.52862265855690
  N   6.55287538408963      1.12394959805275      3.91327904254796
  C   6.56100075033962      2.03051279567506      2.73845843907309
  C   7.17394178876640      1.33470854179152      1.51263935181864
  C   6.92006554666012      0.03489265001776      1.29384575902996
  C   8.24030379317153      2.04239064664739      0.74427116407101
  N   8.14978824051911      2.69991560603744     -0.32666996517277
  C   9.64849056521857      1.79580048426359      1.29565289658813
  N   10.71037813116031      1.89962112531849      0.63512114166720
  N   9.65648340207714      1.31272381614820      2.61653623458443
  C   10.40510228769160      0.25344680033324      3.05808282995935
  N   10.07800005528561     -0.49417517821475      4.03827744748648
  C   8.84314106306024     -0.26251716192495      4.63384480457231
  N   8.58521575982231      0.34365381003979      5.70583250701572
  O   7.81397306952437     -0.85049532003736      3.91276787310714
  H   6.93988273460669      1.44041850633048      4.79497590697849
  H   7.12014909264523      2.92685152035175      3.01444546714455
  H   5.54427216163181      2.34030220359271      2.47965559907200
  H   7.34348958755952     -0.50372415591523      0.45111656867753
  H   7.18485264517379      2.75282079583910     -0.65241495358637
  H   10.49039882928970      2.22057638362584     -0.30858835067764
  H   8.81052258220116      1.46749431995152      3.14158168935151
  H   11.32402680825915      0.07807136210758      2.50936205656850
  H   9.44394740230416      0.68598323311912      6.13129326647470
