22
Coordinates from ORCA-job 12017optt
  Br  2.66646928458435      1.42627096025862     -1.74211346219134
  C   4.12207979077938      0.68383269243233     -0.82090742696034
  C   5.25689626086581      1.37312063322304     -0.56293270864373
  N   6.28908869552004      0.71267114031189      0.06515783170746
  C   6.44808273423095     -0.65147520077261      0.01509829013754
  C   5.20551911297871     -1.36527488448474     -0.12004899290896
  C   4.07915302749288     -0.71559181266574     -0.48725111146469
  C   7.67127004553747     -1.26562308272679      0.06440363541754
  N   8.91736287289183     -0.76230339473275     -0.15656356678628
  C   9.53321368459408      0.29810064107386     -0.43193672678815
  S   9.00162863064376      2.04601080672836     -0.51559699219888
  C   7.71827541588032      1.93001641096428     -1.77788479026551
  O   7.68610919082638      1.12308855933400     -2.65196889429053
  N   6.76782215692661      2.95287637464885     -1.60577367986387
  C   5.63768143057414      2.71393705501745     -1.07446868496809
  C   4.71679769618773      3.82408173635584     -0.92556329204447
  N   4.01857047960318      4.71751083446344     -0.76490529804875
  H   7.07724187839831      1.25763768751223      0.38585654026636
  H   5.21094337960041     -2.43909069736516      0.01197822254356
  H   3.15118496506419     -1.25077460125875     -0.63273726157575
  H   7.65304618743252     -2.33810547167687      0.21541887669101
  H   10.59556307938676      0.23908361335921     -0.64926050776411
