23
Coordinates from ORCA-job 12010optt
  Br  2.38999467639346      0.39090004172088     -2.53622439488635
  C   1.33075776915373      1.24945435093333     -1.16013695005372
  C   2.07627078722863      2.00755294118870     -0.26724334957215
  N   3.15754550755971      1.36919071710575      0.25804374414674
  C   2.80590696484927      0.04724952988010      0.67166042291408
  C   1.61673726739342     -0.53213527845791      0.40930629621879
  C   0.60878263617233      0.20345609607191     -0.38351311977940
  C   -0.74437307527834      0.13910085988494     -0.25734703529926
  N   -1.36620534265690      1.29851079772810     -0.69036414844438
  C   -2.19428752003160      1.99718246407335     -0.04419337582554
  C   -2.04672558879969      3.50373778269973     -0.28623319373920
  O   -2.95319702394884      4.27024258347163     -0.44353718127105
  C   -0.58226782013662      3.88198654361788     -0.27712469849098
  C   0.23335627693941      3.13649244437150      0.45532010669871
  O   1.61956855410711      3.10218155532956      0.40608774561223
  C   -1.41579816387350     -0.82812504452296      0.55960980878464
  N   -1.99240813423252     -1.56503693257006      1.22553105284521
  H   3.83603606489031      1.86791975133293      0.81738916361901
  H   3.56365539098274     -0.44581751416632      1.26361360441653
  H   1.38528639504068     -1.48339611534317      0.86930302813083
  H   -2.78908249990609      1.65645057831418      0.81129356264640
  H   -0.23779805354510      4.66644862669554     -0.93798200658672
  H   -0.13875506830159      2.37945322064037      1.13374091791559
