24
Coordinates from ORCA-job 12012optt
  Br  -0.04017590515486      2.15272309189442     -0.95489388669175
  C   1.27408758990018      1.51421289187129      0.24235886058316
  C   1.94455291292155      0.35805181505310      0.07441739266182
  N   3.17490065728704      0.21128055321002      0.62463526038994
  C   3.97447444179113      1.33799550081938      1.13069427281478
  C   3.25648247829282      2.70981068074210      1.02432923386763
  C   1.82097021645704      2.36923946256260      1.31279331901641
  C   1.35782881812124      2.23947493589427      2.58785502290353
  N   0.58331928771161      1.15145099641510      2.94073311399199
  C   -0.38224608701399      0.71766466126832      2.25962926858582
  N   -0.25052258013195     -0.64273297337304      1.86898737533191
  C   -0.51195067863032     -0.70977930020125      0.62738841454710
  C   0.38175256095559     -1.49180114037422     -0.29506556603148
  O   0.20693403097749     -2.54209152854389     -0.80237125902039
  O   1.52259105190184     -0.75728363402665     -0.62048485285886
  C   2.02051407061964      2.93421024357223      3.66303156472007
  N   2.56278511080721      3.50014359957394      4.50055970812023
  H   3.45657406469794     -0.71934492782914      0.89000050528588
  H   4.92240921914685      1.37171711853532      0.59065927737142
  H   4.18477360803371      1.14983551953040      2.18483521491759
  H   3.35637701792847      3.12783740691520      0.02378689393395
  H   3.70866013515274      3.39345090193291      1.74206406593180
  H   -1.10639908061045      1.34687236237461      1.72739478389792
  H   -1.13569294116254      0.02106176218295      0.10366201572951
