23
Coordinates from ORCA-job 12034optt
  Br  0.99022094259548      0.16319745226487     -0.05873084472703
  C   2.86763230409268      0.07967316709292     -0.06857122147742
  C   3.59685424249754      1.21151015097620     -0.06806487463030
  N   4.98434324867604      1.17275233628370     -0.06595063374744
  C   5.64539738697999     -0.02166038472543     -0.08771004142385
  C   4.96929011307991     -1.18226131748627     -0.09218764216671
  C   3.50515345154173     -1.24272201365774     -0.07941234959474
  N   2.78998235523715     -2.30071960081417     -0.08014873686345
  C   5.59377484289469      2.50408179178544     -0.07155842716924
  C   6.45404273182636      2.69545725990058     -1.25457769565193
  N   7.13984033461599      2.83268414071904     -2.16061017838615
  C   4.37112699243359      3.37169743024470     -0.07115771946556
  C   3.26070670052274      2.62309868327153     -0.06793609651125
  N   2.08974858266833      3.33045667564137     -0.06848597849804
  C   2.26081958630484      4.71141063485835     -0.07977406521499
  N   1.41726355233646      5.64435829554907     -0.08546036700834
  S   4.02344012844389      5.06581011296049     -0.08457407503468
  H   6.72608591187241      0.03435195072162     -0.10888527371692
  H   5.51948965751050     -2.11280054071876     -0.10995818504405
  H   3.37524189386752     -3.13358009783838     -0.09179715682514
  H   6.21307464595079      2.64731244911050      0.82031010171679
  H   1.18035160567006      2.89422372920113     -0.07191951269413
  H   0.45511878838126      5.31666769465920     -0.08283902586543
