23
Coordinates from ORCA-job 12030optt
  Br  4.76555793935121      1.07118474549930     -2.83051287624861
  C   5.00426517889206      0.53847298592428     -1.04860595498449
  C   5.75997449200027      1.23409266872501     -0.19107836412723
  N   5.89573994597876      0.68333475695544      1.11322968250372
  C   6.31811473190751     -0.65557925291260      1.04271294972728
  C   5.59580791770338     -1.46367026755581      0.25425224871071
  C   4.56812751864599     -0.82751665889256     -0.63112254717573
  N   3.57862307066198     -1.40723757306744     -1.16890319302668
  C   7.79505939963017     -0.76638574308430      1.22312762820382
  N   8.40958101529433      0.38729327028132      1.20560899946006
  C   9.58280236170421      0.29795249005577      0.54401883041093
  C   10.06872770079979      1.58389782315453     -0.11329524915786
  O   8.96215618018545      2.46144079836758     -0.42678480673044
  C   7.79748232779248      1.84922831811684     -0.70670629941656
  N   6.67143889165567      2.30045958451747     -0.34156308236582
  N   10.02469643266456     -0.89148896832572      0.22990331849195
  S   8.88074200724450     -1.99501119764247      0.68956863321332
  H   6.53793740723594      1.25767517734461      1.64320604880959
  H   5.89506499745915     -2.48003488453071      0.03361869422488
  H   3.48290227281125     -2.36292832307654     -0.82679366165052
  H   10.61705612598245      1.32169144777522     -1.01818955047872
  H   10.70863242882002      2.17341009362483      0.53939718301993
  H   7.90250965557874      0.88571870874595     -1.22008863141352
