24
Coordinates from ORCA-job 12047optt
  Br  1.12244536767540     -0.26217284318889      0.70820343065542
  C   2.93169879971546     -0.09570701614579      0.18783883684885
  C   3.53964833421729      1.10456060719661     -0.02257766416433
  N   4.92503359773589      1.13699807702667     -0.22416551642459
  C   5.62245738141671     -0.04410376584205     -0.36097339212805
  C   5.04028169304146     -1.24166714243484     -0.24904027651699
  C   3.63266252914503     -1.38288667611349      0.07979071956688
  N   3.00953857036050     -2.48381030038193      0.26595237022357
  C   5.72891661094398      2.32915511320722     -0.10855504199148
  O   6.92462966026508      2.24205195624636     -0.26058847624437
  C   5.03403538368776      3.54773039399473      0.20093341328609
  C   3.68638508956781      3.60793526939577      0.18272796908533
  N   3.04353687526438      4.82939813238251      0.36349667866461
  C   1.80798877214564      4.91569964556371      0.05970793457200
  N   1.07100144778792      3.87544342401245     -0.42633883374496
  C   1.60399461209792      2.61588806858419     -0.44919688468424
  C   2.88627079708230      2.41954359002394     -0.07105689079069
  H   6.67587414240410      0.09308369648832     -0.54731166032023
  H   5.63636893014367     -2.13582899788435     -0.37133989173774
  H   3.64335190310270     -3.27230488166815      0.15056297425241
  H   5.63321825491673      4.42987596814718      0.36271490169257
  H   1.28090426052092      5.85613880596247      0.17791518691834
  H   0.10609687263887      4.01525057759240     -0.67542300164416
  H   0.94766011412243      1.83172829783494     -0.78527688537425
