24
Coordinates from ORCA-job 12042optt
  Br  2.15958751397885     -0.09820026218499      1.89459294981060
  C   3.58585120050334     -0.44845820271503      0.73288704347074
  C   3.85678741936414     -1.69812104640130      0.26670071380417
  N   4.94855184181155     -2.02129224752771     -0.48984316414727
  C   5.68588230809501     -0.98660662942599     -1.20215032487085
  C   5.56841602445366      0.36491677970786     -0.48154990529598
  C   4.10117567167838      0.56124810189179     -0.17687648580038
  N   3.44392619390310      1.40090779735199     -0.87145788562396
  C   2.10476421157697      1.58186510619873     -1.13920224980719
  N   1.12120555785637      0.77101230570483     -1.28231281314723
  C   1.10470933439501     -0.54827823736152     -0.92086534842603
  N   1.96636426954592     -1.44266524581702     -1.21513583008380
  C   1.88302651729623     -2.62270064538858     -0.46333530362149
  N   1.06053494454754     -3.56078779262413     -0.44136861383673
  O   2.99301865539725     -2.73576501347733      0.39846277270302
  C   7.09722135119936     -1.36751537561187     -1.35274406773738
  N   8.20055995702365     -1.64264805719256     -1.48383274534583
  H   4.83957235701003     -2.89598936584737     -0.98432211351850
  H   5.26473697901642     -0.87176582664543     -2.20743297944170
  H   5.93096917559510      1.15102715350275     -1.13829801219586
  H   6.15132423622809      0.34480954804420      0.43885715845998
  H   1.88843192068041      2.61837793978216     -1.38571374844492
  H   0.23947744664940     -0.79190006094262     -0.29849248197350
  H   0.31490491219419     -3.39847072302085     -1.11256656492990
