25
Coordinates from ORCA-job 12048optt
  Br  1.04415741069269     -0.01885107233754     -0.31356226549787
  C   2.91872124033106     -0.02091379198103     -0.13522262493718
  C   3.60264874405094      1.12984062628863      0.07371942389082
  N   5.01418537830450      1.09127553899599      0.13975705410745
  C   5.64745932873059     -0.14714255138031      0.13882750753660
  C   4.99590771116428     -1.29486263633620     -0.04851222691400
  C   3.55633088747980     -1.33956010663641     -0.25577548333919
  N   2.86736608753469     -2.38294440800916     -0.51036459613733
  C   5.89219985284603      2.19587192509799      0.35348799537212
  O   6.91354539577807      2.02403626797330      0.95946907926112
  C   5.69732371707259      3.56310085131788     -0.31101049348399
  N   4.49856706545381      3.85105256414707     -1.07017797878231
  C   3.36612954525877      3.60228427907891     -0.28611664898475
  C   2.95677410357754      2.42485124994309      0.29217538322845
  C   1.84195237926311      2.80201195596338      1.08101342455828
  N   1.60409106169944      4.09501867522922      0.98829352680784
  N   2.53716166178356      4.56389210153580      0.15304107859417
  H   6.71474395294453     -0.09739089150730      0.28281335349859
  H   5.55435194403491     -2.22122718673856     -0.06580520112760
  H   3.46881305086716     -3.20414238697775     -0.55121865325732
  H   6.57196728665477      3.67235453037129     -0.95459115338854
  H   5.80477055321038      4.29773078665344      0.48770635364767
  H   4.46781625864503      3.33751133132800     -1.94312299602831
  H   1.22015787207268      2.18079818505938      1.70283694348824
  H   2.56885751054903      5.54140416292084     -0.08666080211294
