26
Coordinates from ORCA-job 12045optt
  Br  1.03179107793947     -0.12224381037229      0.33958952341690
  C   2.91207131105573      0.01691507084406      0.26331259861201
  C   3.54069917207651      1.22010178001831      0.33097632507015
  N   4.93899722452496      1.26506129624522      0.22312322894225
  C   5.64245218571789      0.09799590732021      0.00265168807884
  C   5.05228911038573     -1.09763442054830     -0.09666775141571
  C   3.61352042515650     -1.25669858876996      0.06421398668982
  N   2.96988568392708     -2.36011629053832      0.01891742586618
  C   5.72801562370329      2.35402353717835      0.77616129467002
  N   6.41087204390058      2.24877214322309      1.82229323244397
  O   5.81129689429395      3.46440185380310      0.04015316332039
  C   4.72263280462814      3.75874082122260     -0.84419299318995
  C   3.43063437253662      3.70448356411457     -0.11136361387214
  C   2.92508433229581      2.53842632341865      0.43477760627618
  N   1.76700896396226      2.86268792503447      1.07963595982002
  C   1.52379311588137      4.19247244973640      0.95153158231302
  C   2.54373511045172      4.75009631224277      0.21833102153098
  H   6.71189231253265      0.22864300281948     -0.08754252057182
  H   5.65286585967281     -1.97221165179983     -0.30596787932569
  H   3.60547369582703     -3.13817124530427     -0.14568409284440
  H   6.28575176885968      1.33888790216955      2.25651364188804
  H   4.74519707170710      3.05765500433140     -1.68179518063747
  H   4.92872514167685      4.75847916778940     -1.21613024975005
  H   1.16333906925137      2.19634494833418      1.53182820875669
  H   0.64875783517401      4.63906210902583      1.39110623699781
  H   2.64221779286083      5.78882488846130     -0.04977244308602
