24
Coordinates from ORCA-job 12056optt
  Br  5.21011169179347      0.61965402606902      2.84399409775483
  C   5.33421915418283      0.10995604102586      1.04529641492971
  C   6.21822912368105      0.71020547323654      0.21142558771986
  N   6.23810928194385      0.32238142515741     -1.11049603932415
  C   5.83645878166270     -0.97573396660212     -1.44665127066103
  C   4.88888023436189     -1.57866706695354     -0.71199147347664
  C   4.45614924656433     -0.98350048637978      0.56398747918933
  O   3.54912697730064     -1.44048768177083      1.22911094593529
  C   6.99753668603496     -1.51367298824659     -2.21948599061969
  C   7.84753094712930     -2.17200742046236     -1.39796773372539
  C   8.97152520831435     -1.41009036525499     -0.81824385061978
  N   8.82038845533077     -0.09965253744572     -0.85953940492235
  C   9.08097202395739      0.39106149246633      0.37565937367483
  C   9.56880227209430     -0.62345028698617      1.17013334911630
  N   9.51883587706533     -1.74809746774896      0.39281159803458
  C   8.33962149144785      1.63906123752837      0.73162779872058
  N   7.07876657482351      1.75732268070465      0.60533711094577
  H   7.06737626895211      0.64776268102834     -1.58956913683233
  H   4.55803950121578     -2.58449729300660     -0.92739977164905
  H   7.42977046479593     -0.80835981613573     -2.92204107846109
  H   7.42729350091927     -2.86268648440780     -0.67423999308170
  H   9.87496859700433     -0.65155970478912      2.20109444513860
  H   9.70847433498521     -2.68421201074456      0.71228807572784
  H   8.86981330443872      2.50627051971833      1.11885946648566
