24
Coordinates from ORCA-job 12054optt
  Br  1.16922184535094      0.16947316455599      0.47968643036316
  C   3.01251511035510      0.21787857702128      0.21316981637199
  C   3.71315412651555      1.37667051853592      0.23002692158257
  N   5.06749453734841      1.40319074921102     -0.00442537822142
  C   5.75162127805172      0.26028929017375     -0.25934301271930
  C   5.12458600105786     -0.93569341193522     -0.28785441494762
  C   3.69379150123466     -1.07374983996607     -0.04073188272643
  O   3.11118336837785     -2.13833524722202     -0.04870799817676
  C   5.68165394331451      2.72069823853053      0.14509007697475
  C   6.39060469993641      2.87821820508237      1.48272803234298
  O   6.80935329478894      4.22316240501537      1.62467911371233
  C   5.84262164820450      5.17688402215931      1.58676467208888
  O   6.04073406369370      6.27248897504300      2.01996170208428
  N   4.65098695411586      4.76484265697121      1.04457157500149
  C   4.49405205012873      3.67523051969327      0.11554072413348
  C   3.28464384629870      2.78838267813853      0.45993778172636
  O   2.23192551028760      3.19801772784875      0.84179953123542
  H   6.81348276984792      0.37565672918915     -0.43724052277390
  H   5.67847063889954     -1.83785112027217     -0.50235953125401
  H   6.38409243286865      2.89741677335050     -0.66962929130176
  H   7.28800302273665      2.26524904726926      1.53778094365032
  H   5.71528524065133      2.59932523305858      2.29801571110904
  H   3.93544767318772      5.47581141796985      1.04685975710156
  H   4.33107444274709      4.03974269057779     -0.90532075735738
