24
Coordinates from ORCA-job 12051optt
  Br  1.76819301354889      1.00268755652877      1.62748855829814
  C   3.31450756315571      1.43633081063540      0.65390964069337
  C   3.33567634346981      1.40359826716245     -0.70973915430298
  N   4.54101679907520      1.49382105682520     -1.35304448466746
  C   5.71735329133579      1.61498670870561     -0.66627263668185
  C   5.70023315173856      1.89311416797115      0.64780056356360
  C   4.42400342748913      2.12409964647769      1.30592685653232
  N   4.36475273293268      2.95946728319171      2.27596512408221
  C   3.30478789754281      3.54107632729272      2.90119248026012
  O   3.10686240103599      3.56743701253394      4.07849178630459
  S   2.08793223111677      4.60736385780050      1.96409561879033
  C   2.20772961754535      3.98377152696197      0.35127198161099
  C   1.18101373616071      3.56446475613880     -0.42388707840549
  C   -0.21105519154473      3.90350581595686     -0.05850633107927
  O   -0.51123648272357      4.74703709051419      0.74466570776491
  C   1.30346289432965      2.56736296975469     -1.50331445832502
  C   2.15861353321889      1.53834646191410     -1.59389238133709
  H   4.54167295581636      1.50006272813804     -2.36012079058681
  H   6.62395749944012      1.52250506194266     -1.24596169425486
  H   6.61091826515236      2.06724869715468      1.20029112460910
  H   3.22351527595331      3.80875341612780      0.02300381216505
  H   -0.99410749961507      3.32293843810937     -0.58256751636695
  H   2.06003112261540      0.83950586704816     -2.41763220351783
  H   0.51216542120981      2.59251447511348     -2.24716452514912
