25
Coordinates from ORCA-job 12063optt
  Br  1.83141684219089      2.60075818528672      2.48055571659049
  C   2.93741253033210      2.24501653367719      1.00771025575824
  C   4.20769476095181      1.63648183034240      1.10206104736713
  N   4.70798540502455      0.96626921527950      0.08249493408668
  C   4.14126416046052      1.09398050592374     -1.11672583167174
  C   3.21016672018491      2.08770599918347     -1.36971387502104
  C   2.66411935573357      2.73271349753709     -0.26433863304948
  O   1.93462982737737      3.88379527102750     -0.43811416406206
  C   2.28400492870103      5.07682836367983      0.15008778467412
  N   1.36854864691638      5.80906523450471      0.56990080588493
  O   3.59931514062930      5.51845016657530      0.08176444521313
  C   4.62502857425670      4.70689765459629      0.56957323404600
  C   5.93837095984862      5.34437196001362      1.03868006533383
  C   6.42488866753928      4.29343813596079      2.10727013051924
  C   5.24420439774023      3.34139776163053      2.11657173369649
  O   4.17020957925817      4.12289896059124      1.77029190792490
  N   5.21717225206953      2.07713981831478      2.01889688383825
  H   4.54153803227934      0.47746650389089     -1.91144578211110
  H   2.93727307123009      2.39489452851432     -2.36905092393334
  H   1.74951803579616      6.69388029228770      0.89272053746496
  H   4.83015102284714      3.91236491561071     -0.15954442168646
  H   5.72474476990532      6.30522219334769      1.50270468141206
  H   6.65549752582643      5.48129452433196      0.23386543207922
  H   6.56885525248570      4.76840263957512      3.07601261951367
  H   7.33498954041480      3.77226530831687      1.82477141613187
