28
Coordinates from ORCA-job 12066optt
  Br  0.89170376072360      0.05583095700201     -0.02957983666500
  C   2.76827659942246     -0.04909262326591     -0.00343986954302
  C   3.44405509293599     -1.21721509050172      0.01825604386016
  N   4.81764547177048     -1.20445962893283      0.03268990211213
  C   5.55673991430910     -0.05674768214326      0.02757567557420
  C   4.93912416113496      1.13531258208738      0.00846379457045
  C   3.48130429308891      1.24945469790135     -0.00669975936399
  O   2.90187447673212      2.31655128583725     -0.02000042771133
  C   5.37118161976796     -2.51242220279895      0.05443762038519
  O   6.54543721031616     -2.75575966121248      0.07074637826610
  N   4.30381374697996     -3.34102392128268      0.05229126913887
  C   2.99872068832998     -2.67428272854374      0.03463654468481
  C   2.18815934699321     -3.03771299733956      1.28750374615323
  C   1.75373905642977     -4.49681567802607      1.22415997319085
  O   1.01389278075560     -4.76779631214291      0.05476071804476
  C   1.76610621495364     -4.53105309765149     -1.11406923594007
  C   2.20226971326321     -3.07428575228802     -1.21576715297535
  H   6.62726139860121     -0.20936782528134      0.04027399315608
  H   5.50663077192242      2.05436353828893      0.00492610395284
  H   4.43250907046836     -4.33770932377105      0.06666434461060
  H   1.30263342925038     -2.40435306785704      1.33221633906920
  H   2.79098585581504     -2.85634332648309      2.17912147216162
  H   1.10936145847475     -4.73928800124530      2.06737120891989
  H   2.62722869641257     -5.16466377463174      1.27295285413806
  H   1.13011017580133     -4.79698547378670     -1.95658851318164
  H   2.63950869384651     -5.20052463586909     -1.13530919288877
  H   1.31802828139542     -2.44198355995232     -1.28777774004371
  H   2.81469802010487     -2.91962669610960     -2.10581625367614
