24
Coordinates from ORCA-job 12067optt
  Br  1.14181323707103     -0.30634510323016      0.74921317736426
  C   2.94659772747423      0.00972687040406      0.39025713138661
  C   3.43861486942095      1.20836965709795     -0.01062438436579
  N   4.81114002566367      1.37122259379671     -0.22246594327847
  C   5.66253330289251      0.30623130429577     -0.02722871619649
  C   5.23317218273273     -0.89516013241670      0.38247943197615
  C   3.82861725064287     -1.16663849710628      0.62706298163917
  O   3.40246344001245     -2.24008436407277      0.99142909802361
  C   5.41288001316851      2.55240390580144     -0.75714019605259
  O   6.55878822683716      2.53901024175781     -1.13249985657044
  N   4.61298217594884      3.64703631749861     -0.83112819392061
  C   5.27545567298459      4.88033891872913     -1.18191476748663
  C   6.00988070270843      5.49056456315515     -0.00323643749287
  O   5.99302248965536      5.01241916468700      1.09337305501243
  C   3.38952485406547      3.73579585875968     -0.05490816212099
  C   2.61220190822617      2.44659445403283     -0.17713646428271
  O   1.42979168889051      2.44375624127940     -0.36549468664317
  H   6.69671236756688      0.52855210047855     -0.23866298954084
  H   5.93640501441456     -1.70092273880630      0.53515485364754
  H   4.54065262135504      5.59880505015916     -1.55375616363115
  H   5.99717555178145      4.69834020025574     -1.97914858071176
  H   6.56695325305774      6.42015581352508     -0.22091876699397
  H   2.76836021968917      4.53677528341380     -0.45002959992855
  H   3.60626120373958      3.93605229650430      1.00132418016725
