31
Coordinates from ORCA-job 12074optt
  Br  0.95437482979998     -0.06510027929415     -0.46885380381860
  C   2.81738414461662     -0.24333572491305     -0.29219885629018
  C   3.48655035212861     -1.38992585805203     -0.17788909838797
  N   4.86710311578522     -1.33576430861886      0.02110576999888
  C   5.44296332516531     -2.66160308158723      0.20704990835293
  C   4.36060911715218     -3.59530516794423     -0.31964544676257
  C   3.03290452692935     -2.83315219892986     -0.13345989652463
  C   2.42028330686089     -3.12861765109053      1.25167974780325
  N   1.98769654917396     -4.51573059959588      1.29893000556453
  C   0.96885337120438     -4.78446390709492      0.29215732949496
  C   1.57286473560276     -4.52453650446384     -1.08134964155508
  N   2.11281719137105     -3.17210485181519     -1.21790256643829
  C   5.60225477243362     -0.18661448620001      0.22912589702936
  N   6.82243160827375     -0.11240320580138      0.56691161312614
  C   4.84852814594079      1.11172199207003     -0.00139178202499
  O   5.37171241569393      2.19266261278452      0.02824818782477
  N   3.50272626822279      0.96607768706935     -0.24705238497460
  H   5.66557519906963     -2.82546327110576      1.26676511536550
  H   6.37544520690048     -2.74610947817350     -0.35250453455534
  H   4.34766528410750     -4.55199926324235      0.19778983775346
  H   4.50007942969636     -3.76570428082423     -1.38685192837555
  H   1.59088271578584     -2.42228209308603      1.40949077546047
  H   3.16517410193486     -2.95501095281726      2.03237108928219
  H   1.65851036911572     -4.75416963762468      2.22477621034940
  H   0.08330984076239     -4.13995679630121      0.41982509889725
  H   0.64846534233529     -5.82380540297220      0.37532444934280
  H   0.82701364580102     -4.67216422587288     -1.86259179968976
  H   2.38001506131567     -5.24072909725659     -1.25504071535468
  H   1.34705449891153     -2.50951234452841     -1.24194076625687
  H   7.24268910133274     -1.02774453590868      0.70859620066925
  H   2.99806242657574      1.82784691319106     -0.39647401530602
