27
Coordinates from ORCA-job 12079optt
  Br  1.18506825214861      0.07161961689234      0.17430446435572
  C   3.07805364093324      0.08238771587376      0.10426594990738
  C   3.74889085473551     -1.12577936128687      0.10405761958189
  N   3.26847761997106     -2.42305512570910      0.19710199736229
  C   4.34240283920045     -3.32170009837831     -0.25345290539444
  C   5.62761655198703     -2.54715527792689      0.09558307537939
  C   5.15186562168605     -1.12101998067175      0.04599934849522
  C   5.79270760039176      0.08674915637122     -0.00338402282305
  C   7.25384064258943      0.46240258897314     -0.05248565153517
  C   7.22594210001719      2.00808722066745     -0.09999461046633
  N   5.80923430904374      2.37523496207451     -0.06261138604299
  C   5.39793086333176      3.66833898718843     -0.17122674013929
  O   6.17124657697135      4.59195717669066     -0.26783666260107
  C   4.99776659635069      1.23843554713620      0.00425728820666
  N   3.68776421792536      1.26199952496081      0.05235414802729
  C   7.91222352012462     -0.10962373291803      1.18760733040120
  O   8.39281131325614     -1.20536883557769      1.22404291076325
  H   2.33833841857173     -2.58769527702306     -0.16015056274357
  H   4.28700984957509     -3.48667170665763     -1.33483229985310
  H   4.27924289443651     -4.28238298377593      0.25240531181111
  H   6.45621237598225     -2.75446022233090     -0.57883446562003
  H   5.96556197763335     -2.77887761072207      1.10904599458425
  H   7.74972015266945      0.02208572225830     -0.91839324448379
  H   7.68367948493689      2.40402001238121     -1.00533484362202
  H   7.74324116980032      2.45710728726090      0.75094841335139
  H   4.30566611278225      3.77318110304636     -0.16095847760347
  H   7.87548444294810      0.53218359120294      2.09052202070126
