23
Coordinates from ORCA-job 12070optt
  Br  5.84358215033951     -0.09608339429307     -3.54348638456232
  C   5.86731536265402      0.08309680644281     -1.69236243554302
  C   6.92535757005095      0.43937200283594     -0.94985104153149
  N   6.60986390944368      0.59369385319262      0.43831115825880
  C   6.21140544738131     -0.71751664551652      0.94450372496065
  C   5.10775151989069     -1.20111179024956      0.36274698844644
  C   4.68393626256058     -0.54676992421176     -0.92105578753216
  O   3.60642620554419     -0.68474485722442     -1.42645222168638
  N   7.14664531172684     -1.25213504281314      1.82030188407651
  C   8.04207976261180     -1.93758080477567      1.22535312450591
  N   9.32091159049393     -2.13598140212919      1.68791947490654
  C   10.40574549642180     -1.98065160895960      0.68013456324037
  C   9.88627279008376     -1.11108840945640     -0.44302514070211
  N   9.70648680331521     -1.54443647294650     -1.65643014810253
  O   8.69941180878163     -0.73038087015698     -2.15224270157462
  C   8.33516467354215      0.07442038149875     -1.14454095604785
  N   9.11793077528810     -0.02872368405564     -0.11812849873334
  H   5.82162182022426      1.22345068555395      0.52336144177640
  H   4.61420791658124     -2.12371511832281      0.63283862158447
  H   7.87448052736508     -2.34495021840821      0.22227232561903
  H   9.48432579431749     -1.58705935520859      2.52181849302363
  H   10.70799764698854     -2.94348915664449      0.27302872327378
  H   11.25607885439313     -1.53161497415149      1.18798479234327
