20
Coordinates from ORCA-job 12086optt
  Br  0.92138868508453     -0.30635805755960     -0.09632578169017
  C   2.78194581087062     -0.17199477910152     -0.09731374608819
  C   3.57402709554984     -1.28567247115971     -0.09772833248550
  N   3.12981164842654     -2.57244897972042     -0.09759233789119
  C   4.23716422852538     -3.29723482973101     -0.09818009913347
  C   5.44495125227450     -2.53812193097572     -0.09837557843294
  C   5.02665091320892     -1.23338350992587     -0.09817567425415
  C   5.75332350592195     -0.00730986005667     -0.09825136587142
  C   5.08434234506708      1.19900139438302     -0.09801863793168
  S   3.37083254966841      1.42245813415963     -0.09744430579795
  C   5.81994686100050      2.45619307816376     -0.09811859827190
  O   5.33559739606095      3.56417287868903     -0.09795585686094
  N   7.19670164938097      2.25583813648060     -0.09833760892348
  C   7.77683012420463      1.02786844873115     -0.09850939165599
  N   7.13156774142927     -0.07950305427036     -0.09850522332966
  C   4.18501453507498     -4.73189759595827     -0.09830396369111
  N   4.18999347147029     -5.87837032787650     -0.09917657896508
  H   6.45404370737848     -2.91357757135127     -0.09868487313172
  H   7.76270355390390      3.09385376157979     -0.09835770798733
  H   8.86116292549820      1.01948713549993     -0.09864433760610
