24
Coordinates from ORCA-job 12081optt
  Br  1.21418950568102      0.02163307984617      0.43571970406047
  C   3.08924102513566      0.04850904829776      0.26909661863145
  C   3.74003858014551      1.26567152594854      0.16346303648379
  N   3.23656752590998      2.52299252257994      0.14505739105158
  C   4.30149473499234      3.30722566977181      0.01914643385360
  C   5.53209075436451      2.60506092695470     -0.04715637751471
  C   5.17595512112401      1.27108472406970      0.04634343153168
  C   5.83219205101270      0.01030861845250      0.05668925947885
  C   7.18469515992555     -0.17866802946013     -0.01947798934706
  N   7.71350737365965     -1.42409816298777     -0.00831345350229
  C   9.15655534682832     -1.60362797669670      0.00307333593963
  C   9.75722463228679     -1.32409669233876      1.37803441476950
  O   10.93534438037825     -1.27605059398753      1.54978447883544
  C   6.87272181142685     -2.49689500256653      0.08571174322606
  N   5.59344323846425     -2.41055145752835      0.16554334416164
  C   5.00117651809099     -1.17987896894682      0.16544745774415
  N   3.68729934458542     -1.14202337946533      0.26604697340610
  H   4.18566539901855      4.38195547858899     -0.02535070084780
  H   6.51422291415931      3.03941437983921     -0.15154994966958
  H   7.88483124295773      0.64423576431916     -0.09576027561701
  H   9.62338536101450     -0.94654119825351     -0.73089919604357
  H   9.39203272813287     -2.63189137995058     -0.27299922673842
  H   9.02780929805472     -1.17758343124055      2.19873310696540
  H   7.35531595265047     -3.46818546524595      0.08461643914107
