24
Coordinates from ORCA-job 12093optt
  Br  1.15820015433505     -0.12240935944754      0.03376979810286
  C   3.02591862694521     -0.20991094540110     -0.06257461032486
  C   3.70407574800638     -1.36921277358731     -0.17100270705311
  N   3.29270083518785     -2.68091288777369     -0.26528304461743
  C   4.41415321065323     -3.48012719656139     -0.32409360712544
  C   5.55179484173629     -2.72652063599130     -0.28016878869301
  C   5.14453968293296     -1.35387601434949     -0.18461801562152
  C   5.81634531720522     -0.16736491205811     -0.12271200473774
  Br  7.68663809658423     -0.12771525504607     -0.14232886177245
  C   5.10958169884197      1.09067566653208     -0.06150250916894
  N   3.71418021180724      0.96194208086023     -0.00960559872676
  N   5.72576476425205      2.22542160739755     -0.06962023546939
  C   4.93359580243644      3.43564327321317     -0.10355079723935
  C   4.35416470125865      3.62997496591252      1.27707941340313
  O   3.23151213774063      3.29455070240620      1.56819437844823
  C   4.28692002400152     -4.89105878115678     -0.42075822691994
  C   4.16929600747853     -6.08087121153659     -0.49954260403533
  H   2.34278587242413     -3.00886070861582     -0.25809956601892
  H   6.55982964424193     -3.10006304215074     -0.31564982519132
  H   3.18503156352834      1.79534017090772      0.23249292732844
  H   4.10966685140740      3.40268709516843     -0.83044057933669
  H   5.58945906503588      4.26943914927417     -0.35528385142441
  H   5.04252098525100      4.01167107489061      2.05001435659629
  H   4.07432415670779     -7.13844206288675     -0.57271544040234
