23
Coordinates from ORCA-job 12104optt
  Br  1.19990861501016     -0.09985509693716     -0.06029005335871
  C   3.04812671662327      0.08228543917386     -0.07538207340876
  C   3.71102052098583      1.26087046592080     -0.08757369870834
  N   3.20229211948557      2.52027133482618     -0.09507752061458
  C   4.27334182612299      3.29379621410250     -0.10777319279852
  C   5.51259729707611      2.58715045578826     -0.10806453482417
  C   5.16718716726237      1.25586568824415     -0.09499060759507
  C   5.86538605044537      0.00161823506488     -0.08817115027878
  C   7.32472137917155      0.02855044770316     -0.09019844520235
  N   8.02507235031711      1.15249224923161     -0.09434385777647
  C   9.32633342881156      0.78229946453155     -0.09242588902601
  C   9.42797864356991     -0.58882579737040     -0.08702703098996
  N   8.15560236710829     -1.04905552995181     -0.08578359442753
  C   5.07821405071974     -1.13257491372361     -0.07910356221311
  O   3.70085642984190     -1.06092971465044     -0.07307976047110
  C   5.38999492855278     -2.56502722475227     -0.07477798775284
  O   6.47821911228492     -3.09533157267778     -0.07625846267684
  H   4.16539601155731      4.37064054142164     -0.11691465525693
  H   6.50342019604620      3.00150542055697     -0.11655510642646
  H   10.12372140213419      1.50616818523441     -0.09483438364238
  H   10.27681241673531     -1.24968129649363     -0.08409109141137
  H   7.82597312737079     -2.01234569241777     -0.08181793992414
  H   4.47682384276672     -3.17988730282510     -0.07046540121558
