29
Coordinates from ORCA-job 12108optt
  Br  0.96832508512726     -0.27760697442772      0.16116552103137
  C   2.82818346093870      0.01953553598278      0.07330833332477
  C   3.66784603763287     -1.03861691180210      0.22601590099420
  N   3.32098739066152     -2.34277040294105      0.44413921486696
  C   4.46116390060365     -3.12471932892286      0.56636179525677
  C   5.56686136865900     -2.36921893991274      0.43157139539963
  C   5.12353044065098     -1.00223761906267      0.20256914362540
  C   5.82545640448601      0.13604429137144      0.00746687533847
  C   7.32469515657472      0.21503598213519      0.02948066855275
  C   7.87196319112739      0.66981430732687      1.39149829402788
  C   7.54935265599598     -0.29844571873191      2.49966248691408
  C   8.39030397250175     -1.53017238643706      2.65702568937054
  C   8.47424966376000     -0.42227946758327      3.66818030189047
  S   5.02826641158481      1.64882993571844     -0.23662104848752
  C   3.26268414553040      1.37531726941038     -0.15267605847144
  N   2.46153199066808      2.35328353333607     -0.29837522868481
  H   2.36843502934087     -2.65866722833017      0.50967072298139
  H   4.37008061683131     -4.18369479446412      0.74421332575382
  H   6.58547172094572     -2.71109430437037      0.49482506525344
  H   7.66444195397634      0.90305243727197     -0.74784222864733
  H   7.72856950229900     -0.77116412025933     -0.20714700310590
  H   7.47759643965795      1.66130864654359      1.62898107515820
  H   8.95781524005275      0.76956732806084      1.30880086164063
  H   6.49387622767753     -0.41974163843256      2.71225374519770
  H   9.22709599348465     -1.65273278427720      1.98061707959804
  H   7.90603434397342     -2.45057382371827      2.95142031603173
  H   9.36570996692054      0.19070589543549      3.66557014757540
  H   8.04710891909549     -0.59317707664836      4.64577614837606
  H   2.93636276924122      3.23941835772867     -0.44791254076270
