24
Coordinates from ORCA-job 12109optt
  Br  1.29857498177567     -0.24701340229694      0.53337449097123
  C   3.12852598756101     -0.05020282189614      0.28989065456931
  C   3.76061990816016      1.13142631374863      0.11305976229694
  N   3.24294600782170      2.39555828374646      0.06717194455233
  C   4.29689379437514      3.16065843343048     -0.13420435781598
  C   5.53909384977572      2.45402136449038     -0.22644297008042
  C   5.20621683559081      1.13415324466272     -0.06721812867073
  C   5.87557524253757     -0.11907458759796     -0.03688615545763
  C   5.14742361978082     -1.23674380794272      0.15031620517599
  C   5.68447446202289     -2.63669384740281      0.18299844477949
  C   5.90142448944667     -3.18427018012687     -1.18805899584579
  N   6.99241473199062     -3.59876315282392     -1.66723413307106
  C   6.69636483434503     -4.02185743094702     -3.02556672870559
  C   5.21826946963903     -3.74109830569882     -3.21115143407857
  O   4.49867712997179     -3.89364901547968     -4.13616097162972
  O   4.79200898491931     -3.22180876210335     -1.99847059486379
  O   3.79568318032426     -1.20353839887146      0.31012452573030
  H   4.17934847599935      4.23365577937776     -0.21636346139078
  H   6.51509228756748      2.88211781177756     -0.38783660179093
  H   6.94643250918172     -0.21133413696826     -0.16051218531346
  H   4.98126047859023     -3.27630470821534      0.71903425580041
  H   6.64542844125081     -2.66216146849705      0.69260990304772
  H   6.90084010719167     -5.08378369948009     -3.16962942446075
  H   7.28341019018045     -3.46629350488554     -3.75784404374853
