25
Coordinates from ORCA-job 12115optt
  Br  1.18325768633094     -0.08536256746633     -0.15309948736680
  C   3.05527394728906     -0.09613315951067      0.01972738299599
  C   3.72314561459201      1.08069083856535     -0.03561616407426
  N   3.20888177558633      2.34221418537106     -0.17482587635252
  C   4.26980997316752      3.12224893101901     -0.17022522593596
  C   5.51713314241595      2.42978807262927     -0.04674195623389
  C   5.17639668951250      1.10529463656457      0.04362947720575
  C   5.85682872712701     -0.13618474012031      0.06587695420206
  C   5.14694309569805     -1.28439486617573      0.12673937629973
  N   5.77472974774227     -2.53279290436510      0.05659001980620
  C   6.73206831928487     -2.98987887871220      0.93144147395422
  C   7.09094993519111     -4.24837062236062      0.54392714988270
  C   6.32142823721147     -4.57504815496495     -0.60828373300738
  C   5.52108545505630     -3.50443284676755     -0.88275969300685
  N   3.74075946783274     -1.28749024093648      0.19000576198934
  C   3.04438009647407     -2.42522610245284      0.73662584018106
  O   3.57334710430120     -3.29309058849539      1.34812690054198
  H   4.15388261779794      4.19492948819928     -0.25862435907399
  H   6.50245690633408      2.86634091375808     -0.04560026373315
  H   6.93046363003720     -0.21146995907233     -0.03694068339096
  H   7.04022368506403     -2.38006935177446      1.76360818201623
  H   7.81708210172163     -4.87321274300521      1.03562406551475
  H   6.35953606926712     -5.49002306442150     -1.17508037198692
  H   4.80056787344329     -3.33519043175893     -1.66586696635691
  H   1.97336810152121     -2.37913584374600      0.53274219592958
