25
Coordinates from ORCA-job 12117optt
  Br  1.16052824418387      0.32457692249334     -1.00889796037731
  C   2.91430631201130      0.03275178371102     -0.45168702662890
  C   3.47005410750187     -1.15632482000764     -0.18597753996883
  N   2.96561731878911     -2.46782235404120     -0.22582712642587
  C   4.08804233222460     -3.37764553052716     -0.51040423302047
  C   5.30295280429253     -2.64952623916919      0.09102456925548
  C   4.90400474415473     -1.20222857878014      0.00048495916326
  C   5.63521032435020     -0.08350786986888      0.01940743831025
  C   4.98150528574601      1.21168363006821     -0.12323771729387
  N   5.47609803641417      2.36936791758318     -0.05644821031607
  O   3.62074117279895      1.17315943894088     -0.39296740964799
  C   1.83728428596820     -2.90520992477225      0.41465144295548
  N   1.12393240300592     -2.02623991022446      1.12792694163972
  C   0.05224946296470     -2.52285164549481      1.70513501810611
  C   -0.27723163634444     -3.86890796960746      1.57693267195997
  N   0.49235051685616     -4.68408429020643      0.87228359240557
  N   1.55523402242724     -4.20988962470901      0.27512906656766
  H   4.19781197525649     -3.49720399173523     -1.58928784673404
  H   3.89244285192947     -4.34954256407278     -0.07033383027689
  H   6.23224337675852     -2.86609329350924     -0.43142353809232
  H   5.42544503490298     -2.92663791833151      1.14091563210263
  H   6.71077618791708     -0.08965395758222      0.13117796196836
  H   6.47098318115571      2.31631105683223      0.13925565755974
  H   -0.55566380091869     -1.84444574883013      2.29439857971660
  H   -1.15091854434673     -4.30403451815909      2.04076890707170
