23
Coordinates from ORCA-job 12113optt
  Br  1.22334249890922     -0.21394072856431      0.29171544348250
  C   3.07339956292450     -0.01888143864234      0.14732130381143
  C   3.69849092081700      1.17988089011782     -0.03081016908462
  N   3.15307317584274      2.41482675178968     -0.15069545613922
  C   4.20240689199220      3.21343193765356     -0.31599914345713
  C   5.45708395689933      2.55321149353069     -0.31016898584704
  C   5.15460991921266      1.21892674843704     -0.12497438703368
  C   5.88191827498078      0.00254917688072     -0.03368721509266
  C   5.17835328823813     -1.15093455549212      0.15577409225523
  N   3.81375411149755     -1.14729941932336      0.23336712953195
  C   7.34097125727544     -0.04266619403509     -0.13910862766037
  C   8.13858338313731     -1.02966865575665     -0.63037187930544
  O   9.42452673282759     -0.64792994781580     -0.49773086151101
  C   9.35923605553364      0.57214109957456      0.05890259215827
  C   10.60139188527599      1.31015038823484      0.36494419145415
  O   11.69819152631916      0.87372370708606      0.16141282487294
  N   8.15701422208895      0.98599017658989      0.28838711772495
  H   4.05294285358847      4.27832401796666     -0.43850976203628
  H   6.43190586170696      2.99911774513913     -0.40871168622909
  H   5.64521676126760     -2.11720609465236      0.27591503790116
  H   3.32872227100094     -2.01842448502228      0.38436332076127
  H   7.95581725968433     -1.98258588876114     -1.09477686633828
  H   10.41704732897947      2.30326327506480      0.80444198578100
