25
Coordinates from ORCA-job 12126optt
  Br  1.12977450632240     -0.20318320684030     -0.94096749993175
  C   2.90679491520926     -0.25382996031635     -0.35725595012417
  C   3.60378670709015     -1.38259987494215     -0.09243078545772
  N   3.22394328752863     -2.73725740753559     -0.15620595571075
  C   4.44328291824807     -3.55048163418505     -0.35235029888399
  C   5.57528330780966     -2.65584840343357      0.21480066885524
  C   5.01594921553144     -1.26636512696214      0.11739801092934
  C   5.65026154005847     -0.08030275768332      0.16518681240756
  C   4.89937175928748      1.15423476172571      0.00820292196213
  O   5.34541289549376      2.27996386766640      0.07298446753370
  N   3.54088494367737      0.95415004069500     -0.26809366383450
  C   4.48848937694827     -4.85304076208415      0.41453337921319
  O   5.25081664327526     -5.72611978441979      0.12994305464102
  C   2.03418874460839     -3.23131618771904      0.35328340598388
  N   1.19946871892031     -2.66451865516379      1.12433078171674
  C   1.60287027003437     -4.59092070875796     -0.13967462907189
  O   2.24164115023033     -5.26005343565637     -0.90081355886090
  H   4.60073222433066     -3.76280012571544     -1.40951119215415
  H   6.50578702976094     -2.79153881008667     -0.33060221113221
  H   5.76277945889468     -2.89910251469963      1.26541221075388
  H   6.71801213002067      0.01174606989839      0.30480370946369
  H   3.01267370812922      1.80051036970152     -0.43054955660397
  H   3.85348134037352     -4.90406577221353      1.32219866212450
  H   1.50424958197567     -1.74422177584159      1.43871396220443
  H   0.62806362624098     -4.90003820543055      0.26766325397668
