24
Coordinates from ORCA-job 12127optt
  Br  1.18179116958694     -0.64183276511278      0.33811424879750
  C   3.04976467241555     -0.54494145076154      0.22223750527016
  C   3.80999493640862     -1.58770451927194     -0.15340650916263
  N   3.45078756558029     -2.87315975781973     -0.58791173465256
  C   4.62799568755343     -3.71731629786829     -0.41732934385907
  C   5.82150419094931     -2.74479781340047     -0.58236532996498
  C   5.22982902345257     -1.42759153084619     -0.15146135752326
  C   5.82502666730950     -0.26858572948452      0.19371610974599
  C   5.02052746355374      0.88261785632142      0.57740516264635
  O   5.44602380928723      1.97615629734330      0.89799162125708
  N   3.64588123189309      0.64065060768529      0.56501957077378
  C   4.62655914314421     -4.38254425598686      0.95356600712770
  O   3.75912086219787     -4.23030103762283      1.76440555479300
  C   5.79963341411169     -5.34469475264548      1.24027383402988
  O   6.58629759474129     -5.61131127206723      0.37122080605870
  C   5.85567244297984     -5.89098023660343      2.57952405947160
  C   5.89078214211540     -6.32394278025660      3.69506499902225
  H   2.61745054452821     -3.23993140606460     -0.14273737904540
  H   4.66735990072463     -4.50970508028778     -1.16636852398317
  H   6.10776868318111     -2.69955803837067     -1.63432920989011
  H   6.70042698352107     -3.03640467395769     -0.01167322446604
  H   6.89786143723638     -0.13708543686085      0.21075354545648
  H   3.07192539901064      1.42264420084486      0.84723955035974
  H   5.92401503451728     -6.71068012690538      4.68705003773700
