26
Coordinates from ORCA-job 12125optt
  Br  1.15013716830988     -0.17950772431554      0.20103139451359
  C   3.02189138538303     -0.19142056622723      0.08017089333650
  C   3.73915860892499     -1.32065112720400     -0.10410997560587
  N   3.36403046445035     -2.63940610873625     -0.26947038068093
  C   4.50532566680473     -3.39504965920464     -0.37072131262899
  C   5.61636170052227     -2.60641770447188     -0.32368049761565
  C   5.17433550268119     -1.24697015393778     -0.15691258349362
  C   5.82292609084265     -0.04571615463941     -0.05116807246763
  C   5.08163842074887      1.16942363632459      0.13221362713863
  O   5.52300662867980      2.30209640546468      0.24206705266925
  N   3.67915980678170      0.98692808161419      0.19198587982175
  C   4.41006584442925     -4.87892285797734     -0.56771111850891
  C   5.76084465140061     -5.59158762824125     -0.44572966805441
  C   6.29928028768233     -5.53316620196443      0.91114828444686
  C   6.70542283343593     -5.48362696920308      2.03607027072049
  C   3.37270564732948     -5.52471024180735      0.34537086091941
  O   2.26611126034846     -5.09089160909776      0.50157048262002
  H   2.45263854625044     -3.02957938747162     -0.08414617749629
  H   6.63853268710835     -2.93954397346265     -0.38109903127631
  H   6.89863778003030      0.04034239354438     -0.09275447520748
  H   3.15642118319806      1.84078596871969      0.33067972861438
  H   4.02431765013865     -5.05041483568508     -1.58159070671293
  H   6.47143972881093     -5.15561871437773     -1.14943086275599
  H   5.63662530086222     -6.63808307566477     -0.73429921767889
  H   7.07501776485627     -5.43402140066681      3.03273763471128
  H   3.69096738998914     -6.45927039131085      0.84277797067173
