23
Coordinates from ORCA-job 12130optt
  Br  0.98473128830446      1.02373911691231      0.48830866473638
  C   2.79058637181435      0.55111224914179      0.38444913233493
  C   3.77292322959855      1.47283484108207      0.25974528945085
  N   3.58423979607169      2.82953003206457      0.21583094204826
  C   4.79536198807273      3.32591931512868      0.10997954918405
  C   5.83878140680874      2.34522332437177      0.07208759233257
  C   5.20414679305093      1.13598502412430      0.16753512457843
  C   5.65698341285975     -0.22223081413612      0.18790514995167
  C   4.77988025116077     -1.25286279606412      0.32380121160518
  S   3.08360080110154     -1.13476190069578      0.46643191207874
  C   7.11959358677191     -0.51252819145979      0.07072565428189
  O   7.92924431113888      0.37323350702001     -0.01704262018520
  C   7.59347069685496     -1.96821181989894      0.06931568163744
  C   7.50417970674572     -2.58059083355693      1.45516348292288
  O   6.69747686845991     -3.42665067709141      1.74109534175889
  C   8.45694830322036     -2.05917156428150      2.42409346178356
  C   9.25637118035614     -1.59579530027656      3.18626447208622
  H   4.94045149047398      4.39765764874455      0.05927499077624
  H   6.89465742773948      2.52706671948675     -0.01282577889800
  H   5.10257270241327     -2.28516646884927      0.37297837484122
  H   8.63596938159342     -1.94090834398752     -0.24378310776256
  H   7.00959473445810     -2.58483388985567     -0.61159897275334
  H   9.96023427093022     -1.18858917792319      3.87426445120971
