27
Coordinates from ORCA-job 12137optt
  Br  0.98490076931091      0.26809211578781     -0.15499775133906
  C   2.85773970034378      0.16746433595418     -0.11628635916059
  C   3.61801410266365      1.29835161256230     -0.13676660671137
  N   3.21657881191593      2.60090078605056     -0.22330865504919
  C   4.31614809931951      3.49616195320752      0.13603479713768
  C   5.57692989838113      2.65967479076535     -0.17422543375906
  C   5.04102594491533      1.25513050235809     -0.09082993317231
  C   5.64136493183796      0.04251131406195     -0.04745059299196
  N   7.03354995375696     -0.06319198970642     -0.04437423416939
  C   7.78325155516277     -1.21584124229692      0.02474473878634
  O   7.31601033061838     -2.32735601992921      0.11574741719599
  N   9.14550667757876     -0.98152489484909     -0.02041992295704
  C   10.07892932925709     -2.01554992703677      0.05535703967475
  N   11.33212522445426     -1.89349113245025      0.01703994772232
  N   4.89160501250723     -1.08693453197972     -0.02206368334615
  C   3.48179232449000     -1.13116287522702     -0.04939318800362
  O   2.92611860746927     -2.20853933562618     -0.01354713968369
  H   2.26420355438598      2.83148209983796      0.01575782298323
  H   4.28290977344582      3.74982723419378      1.19994998710312
  H   4.27477557105210      4.41626206718585     -0.44361641885797
  H   6.37441742583604      2.87730215695406      0.53839815344131
  H   5.94514247880403      2.88707011479052     -1.17907018698996
  H   7.51378275037091      0.81908854440442     -0.11339867750467
  H   9.49555677490277     -0.04003882753133     -0.10861385779322
  H   9.61123297973206     -2.98966089619623      0.15842173395988
  H   11.63541192945291     -0.92403905136219     -0.08339282371332
  H   5.36097548803437     -1.98398890392303      0.03330382719794
