22
Coordinates from ORCA-job 12140optt
  Br  1.24521927067088     -0.05468340030235     -0.05471666908299
  C   3.08872157092344      0.13086724479263      0.03235922592347
  C   3.74440812633135      1.32283334837502      0.05683463414392
  N   3.27976467078431      2.59307048738893      0.03208286505713
  C   4.38027407194188      3.33763816885249      0.06242547625385
  C   5.59526621951491      2.58337305069765      0.10778016353767
  C   5.18321477454398      1.27567425115644      0.10675336083070
  C   5.77815859946796     -0.01257095608128      0.13916047072873
  N   5.11413115859313     -1.11779641068590      0.12222894312272
  O   3.72911587352631     -1.02201770379346      0.06418038617054
  C   4.30303743085529      4.80369955341281      0.05055376619081
  C   3.13129377536467      5.46731924935559      0.07467712802875
  C   3.15037170187207      6.91225303641155      0.06501564123707
  N   2.20961580957940      7.76655844772879      0.09639308958148
  N   4.46172943033748      7.39154774360324      0.01334889102801
  N   5.58596503053789      6.69591294967733     -0.00330295915248
  N   5.54588184207280      5.44027922962400      0.01588928097947
  H   6.59197694955536      2.98971394433658      0.13606255978710
  H   6.85030327982010     -0.16462727914715      0.18305781444432
  H   2.19213323351367      4.93147679485195      0.10452206254812
  H   1.30349352130818      7.30945020005178      0.13033982333937
  H   4.58992365888486      8.39402804969329     -0.00164595469776
