25
Coordinates from ORCA-job 12143optt
  Br  1.07856244627853      0.41259086000998     -1.10447379305359
  C   2.84119423676869      0.27199683091344     -0.51177281047282
  C   3.60992483285141      1.35602798711867     -0.18647576117584
  N   3.26358961799331      2.66432617719049     -0.23149657840064
  C   4.35272860183895      3.31235182040039      0.17376535267058
  C   5.44682150219341      2.46900463528212      0.50035614663771
  C   4.98609461427529      1.19309070086218      0.27419506399158
  C   5.57906149556482     -0.08648464538712      0.40978759825710
  N   4.98410666138702     -1.20657677097108      0.14309594780254
  S   3.45157946241119     -1.30800156059013     -0.39286219686220
  C   4.38709065877607      4.80111378906956      0.26162170753721
  O   5.41762862158280      5.36020569383186      0.55013164759509
  C   3.10280784191387      5.53999028931199     -0.01443758943651
  C   3.29600070003360      7.04562860237097     -0.01391612381387
  C   1.97922471713862      7.79911750466943     -0.22520599801971
  C   1.03930651655975      7.55276941817486      0.86877295771056
  N   0.33153760262858      7.33549504211107      1.74347515016853
  H   6.41423895614634      2.79213384813879      0.84777870474259
  H   6.60379643646058     -0.17186400919388      0.76096540939899
  H   2.37570307578320      5.22908301207358      0.74399099381909
  H   2.69540783265328      5.17582369790866     -0.96187294998628
  H   3.99070120527877      7.32956942670411     -0.80523305080497
  H   3.75025194094752      7.35909113858541      0.92614197476601
  H   1.50198651421384      7.49174498135317     -1.15806853762482
  H   2.15465390832046      8.87377153006135     -0.28526326544633
