22
Coordinates from ORCA-job 12148optt
  Br  1.33645469023725      0.05879143075795      0.38192340672831
  C   3.19884635605625     -0.01937268993001      0.21283072901222
  C   3.85014263937375     -1.21180526095071      0.09926309196024
  N   3.37871812727730     -2.48268445644902      0.07158109326513
  C   4.44334146219073     -3.37533962422003     -0.06534206511979
  C   5.61366046690098     -2.71159742127378     -0.12802895228022
  C   5.28177461554679     -1.30711909058577     -0.02564955085177
  C   5.94579300057033     -0.13830397133977     -0.02206396216898
  O   7.30296497400508     -0.04433971931125     -0.06433202263914
  C   7.85739170875154      0.48127997971263     -1.19612204653871
  O   7.24640827775494      0.75682980770465     -2.17258269898199
  C   9.34657305807532      0.69055251224724     -1.00776552344678
  C   10.00757406684039     -0.41506089004430     -0.32113992550155
  N   10.53520518903725     -1.28448645985569      0.20406966120016
  O   5.34803964847133      1.02833018943322      0.09141194581696
  C   3.93917578213068      1.20704374341417      0.21434068598120
  O   3.55051680194003      2.32997761075596      0.30849122060077
  H   2.40350795940059     -2.72171062126846      0.13925234454835
  H   4.25312319683522     -4.43485872908361     -0.10518955301737
  H   6.59611251729233     -3.13873190761369     -0.22790406906278
  H   9.47633641506921      1.60160848818852     -0.41800409256711
  H   9.79133904624263      0.84799707971176     -1.98803971693715
