25
Coordinates from ORCA-job 12156optt
  Br  3.98857488748322     -1.34636518923149     -3.16547657833669
  C   4.54438669426901     -0.92108313715281     -1.42188136060204
  C   4.31676221937284     -1.82054174095093     -0.40752198605937
  N   3.75704372071002     -3.07194807834703     -0.42246120703664
  C   3.39905440699872     -3.43480209373525      0.95981752936403
  C   4.37787680783600     -2.60791241227992      1.81416179993598
  C   4.71630630357186     -1.46475324953859      0.89177156108750
  N   5.31475758289269     -0.34716551947152      1.19992982479242
  C   5.56500717179489      0.52442752457855      0.21193832877571
  C   5.18398389294206      0.29644301302586     -1.11609682386406
  N   5.24898912368689      1.22448327462279     -2.15554991492672
  C   6.11151671222736      2.12932804469462     -2.31956989722709
  C   7.33547335084292      2.46479307375730     -1.51761850667018
  O   8.27427365348911      2.99240690039476     -2.06757427690444
  N   7.32348202428072      2.22932745914760     -0.17146393779498
  C   6.27379226109675      1.76161870932051      0.65682061556159
  N   6.03084927851464      2.25448762545566      1.79169348675800
  H   3.11841251215201     -3.29697869023031     -1.17083523918183
  H   3.50237378696307     -4.50654176075581      1.11189521256104
  H   2.36625498622931     -3.14623424431805      1.17810696502472
  H   5.28479164366089     -3.17710982610104      2.03202968034736
  H   3.95190725185312     -2.27328605128130      2.75706018872893
  H   6.02778788709078      2.76157743028814     -3.20149265846665
  H   8.10970583243485      2.65020187536455      0.30822008513666
  H   6.62163600760620      3.06162706274372      1.98909710899674
