26
Coordinates from ORCA-job 12150optt
  Br  0.92618630513968      0.02022704457873     -0.39458187632601
  C   2.79137459095194      0.07049427668397     -0.12157927742440
  C   3.52960924211440     -1.05660220077446      0.00591332155054
  N   3.08485480164329     -2.38265245047445      0.02861349494655
  C   4.15848059110345     -3.28639284378208     -0.39847640597338
  C   5.42956221794238     -2.54223610752533      0.02080705388321
  C   4.98661056463012     -1.09804022101379      0.02224346477413
  C   5.77079563076811     -0.01631005738837      0.01639230022404
  S   5.13084146061601      1.59561267089045     -0.00573441152846
  C   3.36601831158615      1.41915908695720     -0.15869291281873
  N   2.64018591832382      2.44985917236077     -0.29148892410969
  C   7.25880632875326     -0.09392762166815      0.00970534836087
  C   8.04390516521070      0.56691918249192      1.07646472824704
  N   7.94706306767838     -0.88929741244374      1.01964205946212
  C   1.98162303041592     -2.88267717643543      0.68362060590436
  O   1.74050186093475     -4.06084384494102      0.74235566537458
  H   4.11296672665145     -3.42171360053649     -1.48028846281158
  H   4.01982375670769     -4.25038124911669      0.08216455030450
  H   6.26991711883632     -2.71985129520012     -0.64752225431943
  H   5.73089281134850     -2.85388254953451      1.02400330132586
  H   3.17688173716395      3.31362854971734     -0.32936854460710
  H   7.70048751360651     -0.16510691398107     -0.97918035778238
  H   7.49152053238969      1.08750380364867      1.84920817686018
  H   9.01965766440343      0.97168998646470      0.84646219579184
  H   7.28292823172608     -1.21657339898474      1.71425306810080
  H   1.37050481935392     -2.11560482999328      1.16706409259055
