22
Coordinates from ORCA-job 12152optt
  Br  1.24720026867677      0.03116018349731      0.00749313838545
  C   3.10336783720819      0.05382882874991      0.00463122973433
  C   3.84515561572555      1.18303379581309      0.00344437118922
  N   3.45977263174012      2.50191801745633      0.00352579970533
  C   4.58630332062152      3.16594082547883      0.00241215686013
  C   5.77366582858340      2.33869788887400      0.00151040580682
  C   5.28413742586863      1.07036294747911      0.00218255004516
  N   5.86930762363533     -0.19302787507197      0.00209666943879
  C   7.25125224069148     -0.36567832956650      0.00143291118607
  N   7.85778619454472     -1.47504251517252      0.00112037049848
  C   7.13081691877401     -2.69080369376348      0.00131536977123
  N   7.68960767612526     -3.82676855838356      0.00079537458580
  C   5.67602568901734     -2.56003397626649      0.00213771217355
  C   4.81677035831900     -3.68919301092354      0.00262262650084
  N   4.00908815789959     -4.50742672653183      0.00369754161669
  C   5.08962313806635     -1.32707458395222      0.00266057881877
  N   3.72489813367047     -1.15961691402393      0.00394797356926
  H   4.58915850815339      4.24801124169747      0.00210146844556
  H   6.79382653919867      2.68390317145811      0.00059558050461
  H   7.80352676591698      0.56769212293250      0.00126410703965
  H   8.70141696267281     -3.71109291074836      0.00031121475002
  H   3.16729216489035     -2.00678992903227      0.00470084937425
