26
Coordinates from ORCA-job 12151optt
  Br  1.13933832358851     -0.14894489496241     -0.83124341001919
  C   2.91802980860721     -0.07033284766252     -0.25176120678313
  C   3.68179433872337     -1.17677074302296     -0.06280516299395
  N   3.25898059301083     -2.51520938214020     -0.14100694861615
  C   4.41654175516345     -3.34916354148054     -0.51095252077621
  C   5.60042198919276     -2.60271107200774      0.11387825699224
  C   5.11705878391664     -1.17413139687453      0.10845575227897
  C   5.84867913456601     -0.05953721735980      0.20534670546550
  S   5.18660578126359      1.52402943334192      0.17525536340125
  C   3.43414006921187      1.29600728699796     -0.11921824697985
  O   2.77474982162050      2.29579211468891     -0.21304329494779
  C   2.14969721653069     -3.00665981022015      0.53082453594118
  O   1.45641796416031     -2.31671943782336      1.23393614025545
  C   1.85623251615510     -4.48160758639452      0.31516478593038
  C   0.42843119776825     -4.79732429018907      0.75668398759508
  C   0.14200146406326     -6.22059433139001      0.59424639624149
  N   -0.04965231262653     -7.34159877541264      0.45616856564975
  H   4.50506034843949     -3.38597012482577     -1.59818785348532
  H   4.30916770757354     -4.36039491064368     -0.13344670354185
  H   6.52257972117321     -2.73816911890130     -0.44707052092735
  H   5.76374167061165     -2.94612303041392      1.13811875874597
  H   6.92572906282246     -0.09070429971552      0.31469485266765
  H   2.55639819316758     -5.07875243324981      0.90453247271431
  H   2.00893588828075     -4.75083507985722     -0.73082799069892
  H   -0.28780047359596     -4.21904202664836      0.17271288296792
  H   0.28671943661145     -4.51653248383272      1.79954440292257
