26
Coordinates from ORCA-job 12162optt
  Br  0.99609171764953      0.13085223702380     -0.38236082732774
  C   2.87676897127448      0.02398652363398     -0.22200460977016
  C   3.57510544099296      1.21351502464517     -0.22428288019290
  N   3.13642420288422      2.50953663111473     -0.39560996006535
  C   4.20448270042351      3.41531919227560      0.06348885769989
  C   5.48742332838898      2.58834477464507     -0.12928520333305
  C   4.96644061412981      1.17680649218750     -0.05718855062529
  N   5.66314461897818      0.07596832964220      0.09114860468872
  C   4.98234359252983     -1.07257659378511      0.08557925377805
  C   3.59574152522606     -1.17144664788051     -0.06527624408148
  C   2.99496742845685     -2.50326705492641     -0.04471558208907
  C   1.85865399359601     -3.07040542629579     -0.52975710862992
  C   1.92884485342724     -4.46337933453340     -0.20805064435901
  C   0.94719211995924     -5.50985113753133     -0.51123566531897
  O   1.09445847960894     -6.67254281637700     -0.23609208507292
  C   3.10394906138108     -4.63568275997840      0.45377865229750
  O   3.75225861117987     -3.47232038100407      0.55625105517427
  H   2.18685272460192      2.71899737703904     -0.12540692851158
  H   4.07011645949829      3.66428442445087      1.12086352610423
  H   4.20009795041318      4.33515969668088     -0.51686749892965
  H   6.24980443598046      2.79493987661514      0.61852968165417
  H   5.92231080435936      2.76242527090433     -1.11698108627291
  H   5.56077465417030     -1.97828312750079      0.20508963830216
  H   1.07034643998243     -2.57647428603852     -1.06862412920398
  H   0.03170397944367     -5.16229491902314     -1.02441159551764
  H   3.56970129146356     -5.50061136598381      0.89342132960264
