24
Coordinates from ORCA-job 12167optt
  Br  1.02077522907570      0.08884327529147      0.05535255782265
  C   2.89846880240189      0.03278681046336      0.06048821541483
  C   3.59613367077519      1.21251130094969      0.09321879393214
  N   3.14962454283985      2.49203435780078      0.14560724809825
  C   4.24990949492792      3.22999143741441      0.19414894246734
  C   5.46572352695341      2.49489459421451      0.17192740355867
  C   5.04759149801409      1.18486066232151      0.10451166931631
  N   5.69810097742211     -0.02412756558788      0.07482130099678
  C   4.98775737828962     -1.16346929327514      0.04488072937941
  C   3.60910001949257     -1.18961221654485      0.04019430827431
  C   2.97798082340896     -2.52863236933845     -0.00064552502979
  O   3.61041936398264     -3.55485454095544      0.00185985468451
  C   7.11431017864625     -0.08907592091156      0.06661390378037
  C   7.95445468375493      0.67424015184942     -0.67212826051024
  O   9.22480878777182      0.30102028005783     -0.42812826118065
  C   9.19371739337083     -0.70584615158207      0.47130925731904
  C   7.92140706830242     -0.99664167275190      0.81960671340804
  H   4.17761813240365      4.30843401030360      0.24728756459264
  H   6.46654340559886      2.88732060529742      0.21884380419978
  H   5.54439768217324     -2.08971366736583      0.00850895143762
  H   1.87864991137942     -2.53928033995020     -0.03516316761203
  H   7.79562253410527      1.46684195156387     -1.38139539041231
  H   10.14597536714885     -1.10337554271799      0.77404037081148
  H   7.58990952776043     -1.73915015654656      1.52523901525084
