24
Coordinates from ORCA-job 12176optt
  Br  1.06569159494892     -0.06121111742106      0.56324836669947
  C   2.92180142480598      0.03313538703128      0.44708635644837
  C   3.59190764738049      1.17009879207509      0.24163650642856
  N   5.01422090342221      1.11721576475576      0.15644321740377
  C   5.47552951358064      2.36678414278764     -0.11672347485517
  C   4.46789058776432      3.27244622528345     -0.17801791747278
  C   3.19969936701018      2.58524624149739      0.05273330136955
  N   1.99330020481971      3.00841471433290      0.10959500406594
  C   5.65149868463205     -0.11700004699966      0.10501122841498
  C   4.95094946795412     -1.22760550978519      0.34720281975798
  N   5.55839713919920     -2.48369687554976      0.46884420532543
  C   5.03651296495392     -3.65040365457092     -0.01523969057463
  N   3.87544715831923     -3.76031148209453     -0.58813172365409
  O   3.72755924714833     -5.08629681206213     -0.87160742090657
  N   4.80020087723340     -5.78910451860612     -0.48644626220265
  C   5.62597890557829     -4.95262243701068      0.04555765620819
  N   3.57121179652046     -1.18426910192802      0.63244324910308
  H   6.53673286786213      2.52293874466459     -0.24422783763035
  H   4.57795585589349      4.33096051608177     -0.34187189843893
  H   1.96618308406190      4.01389640243033     -0.04851010629209
  H   6.71339015157657     -0.12836283450621     -0.08844681452664
  H   6.52619955470812     -2.49537381389839      0.73854164732028
  H   6.57557841355900     -5.27055691651312      0.44253259586797
  H   3.04316258706722     -2.00132180999439      0.34534699214033
