24
Coordinates from ORCA-job 12177optt
  Br  1.46879214362466      0.10304480787581     -1.55313656454745
  C   3.12904582501723      0.00282645038898     -0.69633832280987
  C   3.78396930173108      1.15246227842754     -0.30727793702369
  N   3.45669350977525      2.45687804717614     -0.42351443714639
  C   4.48457435818792      3.09291793275142      0.13490010959105
  C   5.52073956869286      2.25940564638170      0.63598408403153
  C   5.05904881222167      0.99713518989132      0.34572004969157
  N   5.52437640627251     -0.27375079754608      0.52502015066311
  C   4.80250396910568     -1.31888946551968      0.10398297655526
  C   5.36881309629286     -2.69306643228080      0.31872927712277
  O   6.63579254038432     -2.58489570344081      0.91354790944019
  C   7.26880284785934     -3.82988349616182      1.08786776473161
  C   8.63498878321324     -3.60236958608151      1.69338303401447
  O   9.38503958389476     -4.50079296901850      1.93079012549452
  N   3.63879633748755     -1.21530029413261     -0.48747513671081
  C   4.51027040858699      4.52609547595650      0.20775753673279
  N   4.56899040471389      5.66881099715065      0.28542897755679
  H   6.43091071149779      2.57185452442862      1.11837263720114
  H   6.41672215921929     -0.46869032125405      0.96411808692581
  H   5.42761890378480     -3.19597851877181     -0.65294460863315
  H   4.68007605181267     -3.26431237702098      0.95155347721056
  H   7.39296399245897     -4.34760977316172      0.12953600135623
  H   6.69014857589947     -4.47996501365459      1.75435704878248
  H   8.89232170826513     -2.54592660238372      1.90063775976948
