22
Coordinates from ORCA-job 12178optt
  Br  1.29308864126432      0.04247924085094     -0.31902788541089
  C   3.14108151772792      0.19838611843601     -0.12311615513530
  C   3.75990570438820      1.41761338758458     -0.01523649578155
  N   3.31842739351281      2.68176665925437     -0.01225736990267
  C   4.43558109300683      3.41823203550020      0.12180522552088
  C   5.63887870413851      2.67073189247931      0.21351893365463
  C   5.19949826719913      1.36788718035978      0.12308634335485
  N   5.78094126481065      0.15376338908304      0.14352088628193
  C   7.21699435638773      0.01027578266134      0.22037850534593
  C   7.85630686558980      0.26404505411882     -1.13474255045401
  O   7.24739799480110      0.52593589097129     -2.12885075587408
  C   9.38136388552676      0.15358964705532     -1.16966255094138
  O   10.00951277977247     -0.08876324103145     -0.18197556954204
  N   5.10836424884664     -0.98245878048151      0.02785410194186
  N   3.83472289484054     -0.95778494261401     -0.09773057084400
  C   4.38444076494163      4.84260190106655      0.15972510884915
  C   4.37905361004990      6.04039425317663      0.19462953217928
  H   6.63584266240325      3.06487453625312      0.31091340413387
  H   7.44826589791167     -1.00350204667504      0.54621153025240
  H   7.62277187318737      0.70573644535053      0.95737746916817
  H   9.83102044832049      0.31326842732372     -2.16397314119770
  H   4.35853913137222      7.10392716927645      0.22355200440068
