23
Coordinates from ORCA-job 12186optt
  Br  1.14985889406268      0.04183670333405      0.35082342187041
  C   2.98835079387431      0.16789188571361      0.07188575501339
  C   3.69026127252525      1.32798844971480      0.04840195268005
  N   3.29842069835995      2.61665792679267      0.20925105375742
  C   4.42367801214841      3.30789797760577      0.07518803412874
  C   5.58442999274123      2.52601765046703     -0.17517779470668
  C   5.12862410478772      1.22796101562668     -0.19665227412103
  N   5.75877761008510      0.03838460954547     -0.39524338944702
  C   5.02154126088097     -1.02575948858478     -0.35588992829615
  N   3.66770660008272     -0.99057180060200     -0.12641198657246
  N   5.46416276902165     -2.32773047315002     -0.53557759123650
  C   6.67443908707909     -2.56412734257910     -0.80185372250456
  C   7.87239293840277     -1.66193464812490     -0.98130128966288
  N   8.88746397984405     -2.64026548153466     -1.27508960851772
  C   8.42220084161064     -3.90939312972393     -1.28431656381528
  O   8.97894145436042     -4.93543666643209     -1.49713698385307
  O   7.05999337171789     -3.84368247996742     -0.98104543033513
  H   4.40257097724783      4.38698044572218      0.15832223873724
  H   6.59249034556408      2.87795653953807     -0.31750688996324
  H   3.18565538896111     -1.87888637680779     -0.11291008623057
  H   8.05846298352221     -1.09004262851863     -0.07164082720562
  H   7.69500323841720     -0.94838137244549     -1.78720094959237
  H   9.85157338470269     -2.44536131558950     -1.47791714012698
