22
Coordinates from ORCA-job 12185optt
  Br  1.13501710823521     -0.07979246748947      0.10775019090869
  C   3.01709384309840      0.08197731246285      0.13251260706028
  C   3.60238895423487      1.30321417803278     -0.14020554360492
  N   3.06650809902000      2.52878485617659     -0.51052196042699
  C   4.12254532034142      3.52632204791704     -0.30746083865956
  C   5.44454028002116      2.71984063441176     -0.46841195317329
  C   4.99197640519008      1.33413343058745     -0.09581872281254
  N   5.74456449463784      0.29107747111784      0.17767046664369
  C   5.06953449749038     -0.83346710333238      0.42858241418177
  N   3.74929822540421     -0.97431840016253      0.41771399359579
  C   4.02361265447840      4.59888434783808     -1.31296566674498
  N   3.97115363307588      5.44096899463588     -2.08676055526716
  C   3.99769381090054      4.15866661438970      1.07386442844008
  N   2.88160200808123      4.16090441306469      1.74018969430553
  C   3.07433372808174      4.84047690260203      2.90658972341710
  N   4.24857108480682      5.34775907523561      3.16124347822624
  S   5.23607294394752      4.99027655814209      1.90389136927474
  H   2.17376811822271      2.77861093262411     -0.09791961752150
  H   6.25312689128557      3.09925823249547      0.15295030625119
  H   5.76963491093328      2.73814059457071     -1.51012225235293
  H   5.65093550416932     -1.71428654749349      0.66812909829874
  H   2.26402748434336      4.95456792217314      3.61309933996002
