29
Coordinates from ORCA-job 12180optt
  Br  1.71535837080374     -0.16643515280472     -2.20172460788450
  C   3.12941435473706     -0.02511710061138     -0.97669734725436
  C   3.90992234745472      1.08880581428619     -0.96923754904439
  N   3.85910929592007      2.20040976269338     -1.74313935434569
  C   4.85594866946165      2.95152834166123     -1.28284545688456
  C   5.58892889856379      2.38368958164675     -0.20855876385073
  C   4.98552695295349      1.16557358309800      0.00938100971716
  N   5.21709949981515      0.15822456928297      0.89108472144617
  C   4.43701269345175     -0.86143908785002      0.80881951339573
  N   3.39364952967278     -1.02189429105371     -0.07884164892475
  C   2.65124735413865     -2.29289133469518     -0.01116646235174
  C   3.49818120226207     -3.52401960659136     -0.36760579277499
  C   2.81982296661584     -4.65318423886625      0.40451313774926
  C   2.51698787635997     -4.00710904420106      1.75898113316647
  C   2.04644897240011     -2.59618664033063      1.39398931017429
  C   0.53888756025649     -2.46393753770725      1.31701000247186
  O   -0.23973600775402     -3.29991192484374      1.67319884724431
  H   5.04660317368267      3.91761351051464     -1.73230077490810
  H   6.42608930662874      2.81298273111533      0.31526328323910
  H   4.57512998354761     -1.69605088183303      1.48552564191062
  H   1.84443016335063     -2.20461622311996     -0.73277958669817
  H   4.51924059375611     -3.39073690776803     -0.00334825897284
  H   3.54670190240051     -3.68061111734938     -1.44461132155753
  H   3.44178162497065     -5.54336545129464      0.48141557237629
  H   1.88558787495150     -4.93888576341359     -0.08522326693539
  H   3.43050674961293     -3.95317261179843      2.35507044958449
  H   1.76246333582394     -4.54023167679631      2.33370762624970
  H   2.37083388402846     -1.83895048998391      2.11291853979676
  H   0.18082087013288     -1.50808081138588      0.88320140386552
