23
Coordinates from ORCA-job 12196optt
  Br  1.39071187564387     -0.35929720975773      1.01637200394138
  C   3.12791022696999     -0.45577493133159      0.35266193184336
  C   3.78131176761957     -1.58666751257735      0.00280753286122
  N   3.40992707411109     -2.94152463846633     -0.00441265901376
  C   4.64052894609581     -3.75012440357745      0.14808809064990
  C   5.73786721586098     -2.84331974455414     -0.45994228280205
  C   5.17610207700668     -1.45665084907077     -0.27448004541020
  N   5.85613931262631     -0.36598083952595     -0.32704207709338
  C   5.17887898773676      0.82638979185439     -0.10657265769693
  O   5.66745594716998      1.92240829986834     -0.19049332797479
  N   3.82203257852604      0.70620750265920      0.27243866506897
  C   4.89893203932445     -4.04690212623646      1.55940137593737
  C   5.13295482743852     -4.26875946309279      2.71154250086263
  C   2.24366568349796     -3.39555520964808     -0.56960452899027
  O   1.39647282038133     -2.66285803274600     -1.01931980746598
  C   2.08952086057660     -4.84715905433469     -0.56131302047277
  C   1.91431771562129     -6.03069324640487     -0.57636482569712
  H   4.52711213284498     -4.67974154464815     -0.40511650694363
  H   5.84738383102551     -3.04187657033976     -1.52820706789828
  H   6.70353248201200     -2.96030064174608      0.02373005501426
  H   3.36556568822502      1.57873754658018      0.49854968397460
  H   5.33503618418380     -4.47144935255450      3.73662992503644
  H   1.74563972550137     -7.08210777034939     -0.58635295773098
