26
Coordinates from ORCA-job 12193optt
  Br  1.45731882437547     -0.13940518448870      1.48328725849896
  C   3.08869599334792      0.08289015279966      0.63167477954464
  C   3.73601454324467      1.24377680213201      0.48657894062224
  N   3.40886939602597      2.52664768259093      0.88844265259808
  C   4.41795143048332      3.24527317140193      0.48328697385365
  C   5.46492727049656      2.50772815224527     -0.20258652761420
  C   5.01857036127534      1.22684087084954     -0.19454884829255
  N   5.49161225204699      0.02913403327030     -0.65452430390473
  C   4.80563202951184     -1.15342551094837     -0.50821636342502
  O   3.59902553791838     -1.07507949796012      0.16057992979911
  N   5.24338808368899     -2.24421266715837     -0.94771758205782
  C   4.48188886019567     -3.45480384886963     -0.73631945920862
  C   4.91810655455096     -4.55363705341566     -1.71697253171038
  N   4.58605624193193     -5.76056683096959     -0.98609029127321
  C   4.52605932232335     -5.59568576177937      0.36678348758698
  O   4.37787294593401     -6.47253316860023      1.18296292723954
  C   4.70054621810652     -4.10710274111001      0.63345849335673
  H   4.43747824629822      4.31277904841099      0.66460150618271
  H   6.37848524150866      2.90574953000364     -0.61179312657330
  H   6.37122184670648     -0.04997692201204     -1.14073925637630
  H   3.41059967297568     -3.27838312415858     -0.87050076393893
  H   5.99106859947216     -4.46563207468581     -1.90981340352002
  H   4.38357182971232     -4.49594166451140     -2.66445478123515
  H   4.62651773360717     -6.68666990722205     -1.37908617551495
  H   5.72839696732626     -3.94488229918133      0.96888798479926
  H   4.02212399693479     -3.76188118663286      1.40981848056328
