24
Coordinates from ORCA-job 12191optt
  Br  0.97283875902894      0.37203322342271     -0.17446191271045
  C   2.83179510890624      0.25088238781587     -0.03482657636211
  C   3.60989634139518      1.34530637775166      0.03724616159837
  N   3.21865121006670      2.66568283573416      0.02628834241242
  C   4.33491159720825      3.35213463572843      0.09960937616269
  C   5.52984657583484      2.52479531745616      0.16131669552685
  C   5.06376338961430      1.25172097381546      0.12428361061462
  N   5.73296877320793      0.05549703498061      0.15547903041344
  C   5.18512470462422     -1.20999432020102      0.11045150128393
  N   5.80518361219433     -2.31115913011646      0.14647497995042
  S   3.41977372019533     -1.37931172325548     -0.01627827283403
  C   4.33216066643646      4.79119981887917      0.11733542221379
  C   3.27772509342981      5.63258068387291      0.17411548986204
  N   3.77084890032668      6.91963553484923      0.17985993877662
  C   5.16206524618073      6.92673676016402      0.11360995074143
  N   6.00973458328206      7.87794204585829      0.06679450972300
  N   5.47993649751803      5.58654413008456      0.10192197883861
  H   6.55415081582836      2.85438287471596      0.23436373029778
  H   6.74060438602173      0.08446458125063      0.21970894608662
  H   6.81456854058665     -2.20212430461247      0.21754240689526
  H   2.23015242594753      5.39550458861578      0.21940544175159
  H   3.22132028428940      7.75839742627406      0.22262092299214
  H   5.56395969111472      8.78797718433597      0.07911911683518
  H   6.42701907676148      5.28117106257974     -0.02998079107022
