22
Coordinates from ORCA-job 12192optt
  Br  1.48535589068154     -0.64791540322912     -1.02506690641903
  C   3.23415797342768     -0.22927854113965     -0.57420446105711
  C   3.71904159515283      0.99736400471082     -0.30080153159888
  N   3.12324011068254      2.22140856889005     -0.26823634113702
  C   4.10428084445858      3.04052373330917      0.06402353350401
  C   5.37696577273463      2.41175574948125      0.26223389448729
  C   5.13998702750627      1.08758559974408      0.02884510708086
  N   5.93749787812840     -0.02145402014779      0.05514492237960
  C   5.37515227062703     -1.12571858306079     -0.22106081686630
  O   4.05157794445952     -1.28920413989166     -0.52937622236601
  C   6.11489965530139     -2.44372689286746     -0.23427691168606
  O   7.26303718987554     -2.48777440498894      0.09275872026645
  C   5.33503771717504     -3.66523933126348     -0.66517738176069
  C   4.91034691977619     -3.58060975893694     -2.11052284038091
  O   5.30021461993450     -2.75657666592727     -2.89054437964606
  C   3.92198655075923     -4.64755060107184     -2.59113252763364
  O   3.47400137342151     -5.47264878043427     -1.85223792996248
  H   3.90952226827261      4.10017013231591      0.16737900446724
  H   6.30686544662728      2.88290151044272      0.53314814716211
  H   4.44570474434955     -3.81734302763976     -0.04953614490638
  H   5.97253243149371     -4.54257256445510     -0.54060931856408
  H   3.66759377515432     -4.57809658383991     -3.66274961536289
