24
Coordinates from ORCA-job 12204optt
  Br  1.23232639993669     -0.51341313160589      0.84621256533307
  C   2.97193471383047     -0.08988276597804      0.32853297898953
  C   3.41640432383175      1.15157347505757      0.00950599183419
  N   2.76657020765948      2.37354895623875     -0.08427000019331
  C   3.76222699642339      3.46675652977689     -0.04251602315792
  C   5.09472876827286      2.81982057736365     -0.44580160459923
  C   4.83208864640842      1.36546647284726     -0.18205612580569
  N   5.71295580212338      0.43930762503905     -0.11534747547964
  N   5.24873743702973     -0.78955231615486      0.12525628128458
  C   3.94361473637814     -1.18803598549164      0.37420472119714
  O   3.69089765873483     -2.34594253810612      0.61886274887648
  C   3.80629078587125      4.08865802343423      1.35133270334233
  O   4.77778627870161      4.63533646886824      1.78219335837455
  C   1.49389457584846      2.59527376232667     -0.64836296798723
  N   0.81181724723186      1.80414194203343     -1.35674415937293
  C   0.97540238511227      3.91311337304618     -0.34391173615671
  C   0.58316793150424      5.01200740345982     -0.07745610111043
  H   3.46639404413841      4.25826897427586     -0.73153246840676
  H   5.91933212701100      3.21640829682237      0.14291380576156
  H   5.30657165390882      2.98372238558454     -1.50282327462970
  H   5.94733128356646     -1.51700256746572      0.17733621076441
  H   2.86705950202869      4.01197913112711      1.92880268065676
  H   1.28332960127379      0.91604642598678     -1.51852293080789
  H   0.21213689317390      5.98339948151382      0.15219082129284
