25
Coordinates from ORCA-job 12206optt
  Br  1.21828219111943     -0.53529818503972      0.42336984091620
  C   3.03354379802342     -0.14934863554600      0.47605175721486
  C   3.56333507442004      1.05703168013467      0.31141970970564
  N   4.98743194358831      1.15965232198215      0.34691680134050
  C   5.32362420538044      2.42004135684541     -0.09322300839717
  C   4.23594984417116      3.19974136975115     -0.25538186525354
  C   3.03360149582389      2.40269364309886      0.01063561199038
  N   1.79314532217008      2.69943694220815      0.03188090168176
  N   5.76331182546852      0.06065872278300      0.03585378036589
  C   5.20654017880438     -1.06247196245349      0.23817325841109
  N   3.89699335162116     -1.23852263855696      0.68905799675362
  C   6.03827590070507     -2.30020067168484      0.09777144167632
  C   6.64141701262390     -2.77231035419591      1.43417954110960
  N   6.57354078234869     -4.20261575275585      1.23342150924962
  C   5.61155481889434     -4.53917150503029      0.32069376317194
  O   5.15203524523591     -5.61022392498068      0.07726283397411
  O   5.22743446322081     -3.39164255118543     -0.32700055448446
  H   6.36818674131123      2.64898991628666     -0.23869484285555
  H   4.23668025520860      4.24791304426530     -0.50466835485127
  H   1.66017393355592      3.68524657926208     -0.18764224536101
  H   3.50724206471892     -2.15240632283104      0.49295728985798
  H   6.81821568981273     -2.11780338961370     -0.64109397887005
  H   6.03738964446816     -2.44048814210619      2.28354285805779
  H   7.66079382359726     -2.41229837871601      1.55242464779188
  H   6.78730039370756     -4.87160316192130      1.95409130680387
