25
Coordinates from ORCA-job 12205optt
  Br  1.28471015861724     -0.42854638801678     -1.75904493650242
  C   2.91370702586021     -0.18567682927395     -0.87994312952365
  C   3.53674362150964     -1.19755209340132     -0.23247314154469
  N   3.22297307001228     -2.50664919514891     -0.04164515725788
  C   4.23420034488905     -3.11103929486953      0.69941840639775
  C   5.20454309293873     -2.22550747290875      1.00782896288033
  C   4.79797787573868     -0.96565204942345      0.42641263015318
  N   5.37710076250862      0.19296687425723      0.44017768925296
  N   4.75407382885842      1.17898695281608     -0.19467361041599
  C   5.45143063982020      2.47484113368592     -0.14546061637612
  C   5.68292866218049      2.88133096697886      1.31534304703354
  C   6.29526225077447      4.25227426524969      1.44572970700249
  O   5.92062158263559      5.06485032188473      2.24378631768734
  C   6.70338856043095      2.41329793818962     -0.90351940329792
  C   7.74172133879961      2.38597522683244     -1.49722255079968
  C   3.53479400962205      1.11985511521406     -0.90390977240869
  O   3.08795867618514      2.10375526040816     -1.46228621635841
  H   2.39624359055459     -2.95288053385635     -0.40050448639257
  H   4.16197592834374     -4.15743414928992      0.94599249471756
  H   6.10145333629062     -2.41548394030742      1.56997638018629
  H   4.77300872310377      3.17621522797909     -0.63081883932712
  H   6.36896975035958      2.15848213987954      1.76595825622104
  H   4.74136886804117      2.86398604750176      1.86317802541763
  H   7.13767478358532      4.47308643952067      0.76355616782954
  H   8.65616951833969      2.35651803609852     -2.04085622457451
