23
Coordinates from ORCA-job 12203optt
  Br  1.12554582261257     -0.02294684507419      0.47954005626249
  C   2.96936996619193      0.13819087656428      0.18708287309119
  C   3.58226183242568      1.35758721739559      0.09944117027758
  N   3.12816567208939      2.61617734063585      0.17826076611684
  C   4.21696512648284      3.37749644224725     -0.02125491575617
  C   5.42550775090746      2.65496218166832     -0.21590977494428
  C   5.02517103000760      1.34073609512911     -0.14971433344332
  N   5.64133813342989      0.15171878634469     -0.26273522129586
  N   5.04582807332781     -1.02904236203797     -0.17048460021215
  C   3.75560709528639     -1.02814395137535      0.04606064927408
  N   4.18079296173081      4.75293083600925      0.04421810845577
  C   3.28144761030631      5.41834699068026     -0.56394468984246
  N   3.22592202477740      6.79238552871071     -0.29816734001613
  C   2.30944258381239      7.58400947386903     -0.87289242736185
  N   1.43400380656510      7.15552278419945     -1.72080962016601
  C   1.54601749597012      5.81392665729830     -1.99833235019120
  N   2.37857902929028      4.96425272318632     -1.50052330865581
  H   6.40374991669795      3.07298683853020     -0.37830839626723
  H   6.63349864510368      0.09722387311742     -0.43839015125709
  H   3.29734850411764     -2.00469943613108      0.11741974698198
  H   3.89332401726033      7.14957882773526      0.37104529735006
  H   2.33084448134461      8.63180746603454     -0.59156121961225
  H   0.84226842026181      5.43999165526273     -2.73504031878819
