25
Coordinates from ORCA-job 12213optt
  Br  1.37461161635602      0.37977081389780      0.27305272761154
  C   3.24004127166930      0.20287897610766      0.08835346252486
  C   3.77884968969873     -1.03635896093968      0.08868586041368
  N   3.15985553800135     -2.23917400130092      0.22651925420105
  C   4.03131158360836     -3.35185707335233     -0.15292641346437
  C   5.43875091135130     -2.77223955608980      0.04264733725493
  C   5.21370222188902     -1.28290197144579     -0.05886202123109
  N   6.12116460190471     -0.41468638740467     -0.23547201537666
  S   5.78315115343729      1.20715897880558     -0.30120180551602
  C   4.02706709563667      1.41668186389369     -0.02652224515584
  N   3.48928261778506      2.56630411807091      0.03389986439449
  C   4.26218273817898      3.74669664948871     -0.06632230081817
  C   3.86454285256828      4.74185673871867     -1.11230782425886
  C   3.53188424442694      5.01300422205218      0.33020907331606
  C   4.25052296285963      6.03840767121830      1.03303662050500
  N   4.83591336485089      6.85408051856895      1.58859983267874
  H   2.15814461999354     -2.29714281148768      0.12889031747640
  H   3.86845466108357     -3.63692090832601     -1.19611011785944
  H   3.84079979573795     -4.21765394298978      0.47759495938784
  H   6.16236070888543     -3.12688986132170     -0.68675291023377
  H   5.81585410802002     -3.00190516088558      1.04120624882067
  H   5.31444743374639      3.71803878797547      0.20265465550764
  H   3.03557705418804      4.46910972203687     -1.74804175406092
  H   4.64220629794457      5.33981954718813     -1.56374339453919
  H   2.50632085617794      4.86692202752100      0.63791258842141
