22
Coordinates from ORCA-job 12214optt
  Br  1.12812059984404     -0.02520159095389      0.32511913031094
  C   3.00450933563120      0.03724685123673      0.22272988614030
  C   3.69340436099173      1.17963121357373      0.00368392142024
  N   3.25075430147847      2.48352460882329     -0.18853806584960
  C   4.35840274142792      3.31219060794188     -0.39338626226196
  C   5.50885221311720      2.62586083238592     -0.35821604416806
  C   5.16439369461234      1.24212784192819     -0.09806629271320
  N   5.98420635197720      0.26287155220130      0.02016112163072
  S   5.44443270173262     -1.25872998883861      0.30826965662876
  C   3.67353041040464     -1.25449512649259      0.38569801453159
  N   3.02327393232810     -2.32889095441464      0.57750931248777
  C   1.95415173733033      2.97548993497779     -0.08084914713154
  C   1.05941182619469      3.38892873989311     -1.00588845682523
  C   -0.09814479685528      3.79035153391342     -0.27091551776735
  C   0.19939120311608      3.58899697229889      1.03445477452143
  O   1.45532164776797      3.11302588226793      1.16960051079065
  H   4.17979895463466      4.36369932257528     -0.55267340495691
  H   6.50610646884324      3.00593833664137     -0.49259236111911
  H   3.62533270037547     -3.14524091137414      0.66898248774093
  H   1.20071069879397      3.36993365814909     -2.07291694192107
  H   -1.02609616269448      4.16918113668471     -0.66314393031595
  H   -0.34986492105214      3.73855954658120      1.94697760882666
