21
Coordinates from ORCA-job 12217optt
  Br  1.08239838472202      0.08723248156772     -0.01366001122415
  C   2.94594979194341      0.05480948343338     -0.18143004695957
  C   3.63501794706055     -1.13347181141283     -0.16888397830529
  N   5.05213080983615     -1.22129192766743     -0.16907743870483
  C   5.45717778986192     -2.55353200692716     -0.01669115657187
  C   4.40047292536679     -3.36636450716286      0.06162782958775
  C   3.16518162908948     -2.55194874584399     -0.03382348930877
  O   2.02663618562081     -2.94119103443807     -0.00198520396311
  C   5.76654869180824     -0.08814366760383     -0.29135530439656
  C   5.05834870040437      1.02605547582571     -0.44010546329287
  C   5.78089302008701      2.18179205477154     -0.15154276716295
  N   7.12495015758146      1.78647700578413     -0.00613725841703
  C   7.21798380238992      0.38860983202725     -0.06152433643867
  O   8.20377973149891     -0.27538187721373      0.06372525156087
  N   4.98570155138834      3.17129779649939      0.14389813967057
  C   3.67251840517281      2.63507674027133      0.05521583062713
  C   3.67603047325676      1.28661135716554     -0.24648083745042
  H   6.51614872602905     -2.76082819900314      0.01479320410042
  H   4.40789297092133     -4.43652126628557      0.17727672546212
  H   7.93817987308080      2.36504809853398      0.12285612051582
  H   2.83505843287979      3.27966471767865      0.26730419067140
