21
Coordinates from ORCA-job 12218optt
  Br  0.93796123243656      0.33054759092575     -0.38402093570005
  C   2.76666197323905      0.15204496669244     -0.05857741877150
  C   3.61829762442161      1.17194759377120     -0.11152925967948
  N   4.99535627846998      1.03304553500618      0.21803931197547
  C   5.49705005104095      2.30116329062748      0.45469459610552
  C   4.58465329268393      3.26680810712580      0.23437536673986
  C   3.33718202431466      2.64685029076203     -0.20782869260017
  O   2.28653510192938      3.15544010081294     -0.51708042133189
  C   5.66173047513474     -0.17574594948719      0.10710885062713
  C   4.97783328960165     -1.34687512922982      0.20290326986149
  S   3.23376567796362     -1.45696874664962      0.43204696072959
  C   5.63996286610521     -2.64817066958129      0.16010772141034
  N   5.14690009951049     -3.80554679348950      0.18559935292796
  O   7.01960874287938     -2.60197945988146      0.16140771879393
  C   7.67508355375309     -1.47064288716441     -0.08826858444202
  C   7.09167010362994     -0.26679501215735     -0.15488470688450
  Br  8.16646508442334      1.14756740281154     -0.80037148918782
  H   6.50648319839695      2.41273498208281      0.80883861180510
  H   4.73084967281934      4.32469964552283      0.36785951831756
  H   4.13219244418083     -3.80104803758951      0.18808809118032
  H   8.73075721306525     -1.63007682091083     -0.25350786187684
