22
Coordinates from ORCA-job 12210optt
  Br  1.12379533766009     -0.10157314906586      0.87203009260216
  C   2.90934935816447     -0.10428979283787      0.32734537192683
  C   3.67554445702511      1.02564059284055      0.38202749142842
  N   3.39688910493707      2.27424855027641      0.78334551389811
  C   4.54953251853003      2.93514392037726      0.60411272572006
  C   5.60519113541897      2.15315377152583      0.09132373187822
  C   5.04819642032771      0.89701130818313     -0.06013911213715
  N   5.55419056185510     -0.27845164300899     -0.49924882523720
  N   4.81780810327690     -1.30032141573266     -0.53433183899755
  N   3.50519743757025     -1.22547597892118     -0.13602639227102
  C   2.88040932605139     -2.53768658667879     -0.23288508390221
  C   2.77286708058566     -2.98730794704287     -1.69404774054047
  O   1.73506821761323     -3.34415423880360     -2.15862384012227
  C   3.68366201136340     -3.57001199633363      0.56774968393977
  O   3.83324419480152     -4.68406993712848      0.15534687422643
  C   4.16874987030818     -3.10030986141304      1.85471402402854
  C   4.51136427482998     -2.65575851339679      2.91271540236613
  H   4.60440813537589      3.98652397114263      0.85197461593237
  H   6.61188078281218      2.46323574452994     -0.13199372916754
  H   1.87601882791253     -2.49449335654387      0.18380636319279
  H   3.71367435489204     -2.94961395895510     -2.26724322245943
  H   4.83095848868825     -2.27943948301299      3.85704789369501
