25
Coordinates from ORCA-job 12212optt
  Br  4.08773766041041     -0.85685051383146     -1.94551990197621
  C   4.09585971236731     -0.27850888648690     -0.16957136099971
  C   4.20863295531551      1.02548092832043      0.19291110222776
  N   4.33384280600055      2.12052873458008     -0.59053784727593
  C   4.41428129845466      3.15169115005920      0.24837980733410
  C   4.34202945434414      2.77080701304218      1.61993090097770
  C   4.20929862433332      1.40632013845750      1.60961441296172
  N   4.09828271217131      0.56206694356025      2.67353656850773
  N   3.98360875474784     -0.67688002369083      2.52961407356221
  S   3.95190248538486     -1.46792233212707      1.04072084885332
  C   4.56304360345064      4.54410106706029     -0.27036748528350
  C   3.40571096102302      4.99918374118618     -1.18493847913998
  C   4.05712966814705      6.05227489049496     -2.06706310333978
  C   4.81217732786607      5.58485166677019     -3.24769085699125
  N   5.51563695276695      5.90796497576151     -2.01194778473333
  C   5.80402420995774      4.73721988825717     -1.16362106954465
  H   4.38296414910069      3.41690381844462      2.48178854880252
  H   4.63412354540370      5.23034003977924      0.57567122007161
  H   2.57128148122807      5.40080193209883     -0.61225579088814
  H   3.04384692747532      4.15094258555094     -1.76716047536429
  H   3.68047181474734      7.06672466451258     -2.03254077212248
  H   5.00882658357653      6.25231384362991     -4.07713799914679
  H   4.71371222914621      4.53530752199063     -3.50819271111045
  H   6.69800478358662      4.93189672237914     -0.57271974434740
  H   5.97256929899405      3.84143949020034     -1.76490210103479
