21
Coordinates from ORCA-job 12215optt
  Br  1.35615781924133     -0.17198937750524     -1.35528039978409
  C   3.03022207849772     -0.21244516410084     -0.52559956509603
  C   3.66636584308291     -1.35501039581970     -0.18727076709773
  N   3.20022590555277     -2.67084952854737     -0.27491456783996
  C   4.33935182931051     -3.57378571927799     -0.49568113432282
  C   5.49999374272373     -2.85926247346491      0.22772370456161
  C   5.07642741764101     -1.41057566623128      0.17901657300473
  N   5.85566466173836     -0.42891138009209      0.39290629556829
  S   5.33427423617992      1.13067421035372      0.27192404457486
  C   3.65913491327196      1.10568293375521     -0.32863255051812
  O   3.12420433302739      2.15687944188463     -0.55700395324596
  C   4.60563932513870     -3.73134450015978     -1.93425049168359
  N   4.84205680290197     -3.83505996383059     -3.04950866402151
  C   2.03624734904003     -3.21782558604395      0.26019588229245
  O   1.79423805064034     -4.39022999062365      0.14030421321704
  C   1.21406264596895     -2.32473521362237      1.05473935394401
  C   0.54443074069465     -1.65605300699062      1.78628418607370
  H   4.09659347530656     -4.54896106589945     -0.07946569081129
  H   6.46481564843090     -3.01502417034618     -0.24715767674309
  H   5.55005218092886     -3.20287916987617      1.26207805524429
  H   -0.05915899931863     -1.05129421356134      2.42259315268322
