23
Coordinates from ORCA-job 12223optt
  Br  1.57624865001779      0.14088811764699     -0.54646585776723
  C   3.41664289234915      0.05444624263570     -0.26660645377442
  C   4.02997058801531     -1.12993474656190     -0.16372030206803
  N   5.43209451174977     -1.19764276671209      0.07185522646619
  C   5.79288361198680     -2.50325961017402      0.15512623673914
  C   4.72873563341087     -3.33459675191663     -0.02143807211409
  C   3.53031388486834     -2.53980170631802     -0.23563330004364
  O   2.38224874835562     -2.88738538559891     -0.43187701017733
  C   6.14364309607073     -0.03212100920792      0.22595617920908
  C   5.53212008084104      1.15672053351195      0.11284581853339
  C   6.23649227421491      2.42114309943274      0.25818797602351
  N   5.70617836050361      3.57087397103776      0.12785164272484
  C   4.34042804172525      3.60981947314707     -0.17533497763570
  C   3.72439546503514      4.93542716295763     -0.34431605047360
  O   2.56089421556733      5.11459770057541     -0.60293204100927
  C   3.58980380026428      2.49792591726881     -0.30622081255339
  N   4.13360858674722      1.24945734702529     -0.16068018760964
  H   6.82683549993602     -2.75149102715045      0.34533268301964
  H   4.75372653356632     -4.41034079629476     -0.00713582299676
  H   7.19981369223143     -0.10544292175480      0.44057549303811
  H   7.29568355159978      2.35791470969421      0.49532901982844
  H   4.43023565798988      5.77394522977215     -0.21091133561845
  H   2.53700262295334      2.56485721698380     -0.53378805174078
