23
Coordinates from ORCA-job 12228optt
  Br  0.93537329533050      0.61611439202750      0.12173628217212
  C   2.77544631886288      0.37446686584450      0.33098306540277
  C   3.66397890361128      1.30953154681708     -0.00290886947340
  N   5.06013167398632      1.14279384409406      0.19021006272658
  C   5.69727808690491      2.29189384746677     -0.21454035954199
  C   4.82499022330048      3.23326796757844     -0.63944820102993
  C   3.47200437527076      2.69510035915299     -0.55859345523437
  O   2.41327465284075      3.20977647247222     -0.84124899064470
  C   5.62955237265037     -0.10042561577282      0.42416202935088
  O   6.97753381928777     -0.01486471997862      0.20516795029340
  C   7.87274040785692     -0.97944877508440      0.51824813159327
  O   7.60314329301502     -2.05478111105724      0.95059475933439
  C   9.27905776008641     -0.51948482418155      0.18408174574676
  C   9.52279567097187      0.90205707199951      0.39322166815361
  C   9.73506153311328      2.06497521569109      0.57575348026352
  C   4.93020888420002     -1.17840951297518      0.77077243266982
  S   3.19130643330576     -1.17052742447916      1.02410468359180
  H   6.77425368029407      2.33359046337104     -0.15875066702960
  H   5.07097297204155      4.22358563751363     -0.98117782088490
  H   9.45045889878455     -0.77482767761683     -0.86631932617665
  H   9.95914614425470     -1.12790854178638      0.77859054273939
  H   9.93563556530804      3.09679965106914      0.74316911712530
  H   5.40265503472158     -2.13427513216583      0.90819173885192
