23
Coordinates from ORCA-job 12236optt
  Br  1.20302517622880     -0.16423955950832     -0.18204464181749
  C   3.03747798478075      0.02778503506530     -0.28286564758073
  C   3.70827714358405      1.16744106112219     -0.22577646088979
  N   5.11267004287224      1.10877598755575     -0.26355787101133
  C   5.59596250970885      2.34484230495431      0.07757104920008
  C   4.61175018908278      3.26966786469590      0.18075323658425
  C   3.32435603461851      2.60356102589137     -0.01196092074091
  O   2.20012640185216      3.04664636203960     -0.02743249109242
  N   5.76056983032819     -0.06943320101734      0.06964762241375
  C   5.03969544798038     -1.11365252573460     -0.03581167039424
  N   5.51631130406600     -2.35319821483063      0.23086524437780
  C   6.91852143799282     -2.53985467829990      0.42913636515319
  C   7.38692433199631     -2.07445439072678      1.80762856222244
  O   8.53228380735001     -2.14543774325476      2.13835775338254
  C   7.26753114605862     -4.00821948490380      0.25731525052786
  O   6.46670934165419     -4.81288112955826     -0.11962482117465
  O   3.71828322018140     -1.16074383555676     -0.40659536705403
  H   6.66211100684404      2.45701624352902      0.20499489537162
  H   4.73636223249167      4.32565072959210      0.34551674044554
  H   4.98743657746145     -3.15022304165470     -0.09952066010797
  H   7.52229353458735     -1.97717355386501     -0.29760152346986
  H   6.58809893623951     -1.69909153138701      2.47181631264864
  H   8.30722236203984     -4.26778372414764      0.51018904300572
