21
Coordinates from ORCA-job 12234optt
  Br  1.18772120099493     -0.15596208087197      0.44891117570462
  C   3.02632324994763      0.02951532178798      0.19757064341906
  C   3.65361487629989      1.22231345916572      0.11792811017548
  N   3.22633371831021      2.50451501886583      0.17325980810544
  C   4.33676419048901      3.21590048653651     -0.00632950141248
  C   5.54023122258794      2.45593797626583     -0.17831139600423
  C   5.10203402850239      1.17287867062350     -0.10260067580711
  O   5.77566839672255      0.03181086779630     -0.18931377852829
  N   5.12369150947911     -1.16423308939996     -0.09452515361572
  C   3.84715667752694     -1.14042456439150      0.08090807770362
  N   4.36461665687368      4.59424907658597      0.03672929763169
  C   3.46928321650453      5.34171976667046     -0.43610277740576
  O   2.34551394519347      4.95818198398504     -1.12769677271943
  C   2.43548873482828      4.04932601116454     -2.14010131155133
  O   3.44123033580336      3.71327235003568     -2.66807011712441
  C   3.51720996227086      6.76374988916335     -0.25067388949693
  C   3.54759350760941      7.95028877164570     -0.10300969438621
  H   6.53142941199240      2.84434819990273     -0.32931655287939
  H   3.40016284217456     -2.12413922587485      0.14608336801442
  H   1.42376817821730      3.72699649225462     -2.40094045848870
  H   3.58616413767148      9.00575461808842      0.03060159866567
