21
Coordinates from ORCA-job 12235optt
  Br  1.53237048383383     -0.34175185497925      1.17523291411978
  C   3.13306495098641     -0.11206383058726      0.28265454966013
  C   3.74584267805628      1.04019828558311      0.05939112623426
  N   4.99911436990386      0.99507606673330     -0.60023178428844
  C   5.57912962565957      2.24181574377172     -0.47944927369576
  C   4.73641527342402      3.14408558853564      0.06338509704395
  C   3.49800421527336      2.46010729031344      0.45616465827240
  O   2.49488719144790      2.89710934333988      0.96662252628936
  N   5.74622826164646     -0.15517065874932     -0.52098384204870
  C   5.08988140165505     -1.20974535870588     -0.30158039847002
  C   5.74231395035151     -2.54239730058019     -0.16779699546166
  C   5.70312000908013     -3.01562329663069      1.24547715250285
  N   5.30813313007879     -2.32088252171169      2.25794140117137
  O   5.46587444337317     -3.13913159932212      3.30868807714035
  N   5.96314154201154     -4.32716508813658      2.88093391462924
  N   6.11124444099555     -4.27304315907419      1.64414396226988
  O   3.71733790468334     -1.27769074372387     -0.14139299746109
  H   6.59241845310686      2.36474877414217     -0.83080296247387
  H   4.91574538547213      4.19763665940864      0.19175031343927
  H   6.77598089327204     -2.46439063477518     -0.50155839465343
  H   5.23075139568813     -3.27372170485168     -0.79758904421988
