22
Coordinates from ORCA-job 12242optt
  Br  1.04431400223331      0.07083276040515     -0.10957675585048
  C   2.91942814783177     -0.10652237504998     -0.03119012508840
  C   3.66134750212022      1.04013105243086     -0.13660149984561
  N   3.20305333006296      2.30827068490144     -0.30619893460778
  C   4.28734238937463      3.06468988093215     -0.35033117169651
  C   5.50953614523848      2.35248336633887     -0.21284562302265
  C   5.12260114033077      1.04240410360462     -0.07383688549810
  S   6.03282078756432     -0.37073379425277      0.15016869191282
  C   4.84428236481450     -1.56903183021572      0.22874388344464
  C   3.49463717955326     -1.39641955715938      0.13829279297160
  C   2.60693841006547     -2.63051226592855      0.20719149226702
  O   3.34991556498909     -3.75643094799854      0.63754308580735
  C   3.33283985352660     -4.73974132111864     -0.31676700541879
  O   3.92969645666888     -5.76018949397896     -0.18713039134961
  C   2.49015159253302     -4.25509559761978     -1.43414903886985
  C   2.06554657712250     -3.03611537419619     -1.14077073280326
  H   4.19847494217541      4.13499310745045     -0.48211591660179
  H   6.50841504875054      2.75552265578686     -0.21650755831518
  H   5.25112485861241     -2.55982595975527      0.38065131790046
  H   1.79744169168503     -2.45837633898532      0.92113144338870
  H   2.30723044486257     -4.84724022701034     -2.31566010425206
  H   1.44286156988425     -2.38309252858096     -1.73304096447253
