26
Coordinates from ORCA-job 12244optt
  Br  1.92925602568564     -0.16058096933834     -2.22696728811962
  C   3.15343821553053     -0.03987363028693     -0.80324953423457
  C   3.68890462550342      1.19033959622228     -0.54165974959555
  N   3.42748702950011      2.35174315137202     -1.20034306670757
  C   4.16537324177141      3.26549098425755     -0.58983873097661
  C   4.94626191302138      2.77368441007492      0.48847382897670
  C   4.65127800188051      1.43064383956306      0.53466508387827
  S   5.19338646465247      0.19921363083862      1.55601580175525
  C   4.37451870210084     -1.16952152638734      0.97340408991941
  C   3.47680341000764     -1.22771732428600     -0.06386872897491
  N   2.86000615441378     -2.41427358115071     -0.40535581964927
  C   3.21023311376933     -3.68320715414883      0.18962744891019
  C   2.53513719433463     -3.91493945462324      1.54210432117272
  C   1.00799601230675     -3.84306116508153      1.44864992762152
  C   0.47927816465292     -4.82666759170078      0.50391994188760
  N   0.10340356484458     -5.59996378367448     -0.25412464329737
  H   4.14061672032943      4.29464485823124     -0.92403532137091
  H   5.61454984877141      3.33303225328481      1.12128303109924
  H   4.63543713671651     -2.05878815446334      1.52701263368564
  H   2.44110571331697     -2.43765596995894     -1.31988476585550
  H   4.29634906319140     -3.78331573216426      0.29321441288644
  H   2.88682577267851     -4.46278655553169     -0.50094076690628
  H   2.85541924130717     -3.16613592357642      2.26792431079642
  H   2.83898296190589     -4.89138116279835      1.92307969858324
  H   0.70235254952986     -2.85270360609118      1.10773467574678
  H   0.55159915827677     -4.01721943858207      2.42315920876876
