24
Coordinates from ORCA-job 12243optt
  Br  1.21407784103026      0.11608103424661      0.30294270579031
  C   3.08614722060640      0.03497174039013      0.16855689090639
  C   3.77136582087995      1.22346309866901      0.13638079792435
  N   3.24619238056346      2.47160648597300      0.17231166012807
  C   4.29054968911226      3.29091826960100      0.11244530122176
  C   5.55083705560589      2.62417208562950      0.03793337656207
  C   5.22927500597297      1.29330543794368      0.05074041033957
  S   6.22027875394480     -0.08580800116731     -0.00827804100898
  C   5.08784268228708     -1.34154865318199      0.03612984360158
  C   3.73050261068517     -1.23375955331712      0.11447342196525
  C   2.92746148247120     -2.50228270292060      0.08713324893691
  O   2.34759479448758     -2.61682415789848     -1.20189043061939
  C   1.38327677612727     -3.62324951292297     -1.28938196656768
  C   1.97089974236340     -4.96545037739669     -1.09367350108262
  N   2.45637540626736     -5.98806641998175     -0.91930366765373
  C   4.13357545446323      4.70838522839398      0.12032908127874
  C   4.03320458498433      5.90286703982155      0.12359088854454
  H   6.52152557426957      3.08699393563144     -0.01952030141889
  H   5.54815550302949     -2.32010285272355     -0.01761198113227
  H   2.13962873463204     -2.47807849916792      0.84733285950774
  H   3.57253941843102     -3.36332838498949      0.28594678891779
  H   0.94556777119057     -3.57111787799766     -2.28491849027498
  H   0.58860745927276     -3.48404817760262     -0.54734923329016
  H   3.93251823732185      6.96190081496825      0.12768033742362
