22
Coordinates from ORCA-job 12241optt
  Br  1.04063070692349     -0.08388046306750     -0.30041117988280
  C   2.90111879694456     -0.12970730183997     -0.07024217840946
  C   3.63155351457760      1.01482815021279     -0.24998049226629
  N   3.16447777865135      2.24818327112533     -0.59523007084347
  C   4.22650551394488      3.02474826231106     -0.63964498354230
  C   5.45274511346846      2.35903686404193     -0.32877898913361
  C   5.07769443141377      1.05178404000578     -0.07723363516484
  S   6.01121219294592     -0.30298181323244      0.35334762370847
  C   4.82842564185142     -1.50984243919772      0.48647339203172
  C   3.49088056232059     -1.36337646369636      0.28839753587544
  C   6.78280669378488      2.90648731469537     -0.27410974102576
  C   7.22887590713298      4.18018209551165     -0.48491885454104
  O   8.58769470165572      4.17583199238336     -0.30414471897910
  C   8.88485437059361      2.91140676276878      0.00442890877284
  N   7.87866591590020      2.11251295420204      0.04031663728713
  C   6.58560781045463      5.38542693594034     -0.82442160230311
  C   6.00718432264537      6.39595748444867     -1.11347798891127
  H   4.13764190002964      4.07266833874358     -0.89333758373140
  H   5.23950012706045     -2.47321600318878      0.75834406442744
  H   2.84995955467132     -2.22576565821843      0.40699639181254
  H   9.92126234016828      2.68383433313943      0.19306780370610
  H   5.49270210286078      7.29188134291109     -1.36844033888721
