21
Coordinates from ORCA-job 12240optt
  Br  1.27372272267338     -0.02995906706981      0.26892529052556
  C   3.13447441931595      0.09852361049918      0.09514755130276
  C   3.72281940371301      1.33048409063229      0.00624644145399
  N   3.12880130022699      2.55044002432257      0.02107563865021
  C   4.11886523241572      3.41855686199058     -0.09803858910390
  C   5.41166931485437      2.83040267971648     -0.19720723860129
  C   5.17390097506367      1.48119161609359     -0.13232921346453
  S   6.26161995228732      0.17851629882389     -0.18542998011159
  C   5.22834639157161     -1.18172541372725     -0.05520697316119
  C   3.87129489848974     -1.10731585343640      0.06569496358111
  C   5.89355982329458     -2.50571019918462     -0.07244804165606
  C   7.24957730262703     -2.68395127191469     -0.37675862439206
  N   7.80981762173310     -3.87962140334472     -0.37379278103107
  N   7.07386361497985     -4.93331780987054     -0.08233018166819
  C   5.79106164310612     -4.73536389120938      0.18841743006330
  N   5.15806479957061     -3.56809649355744      0.21076135579098
  H   3.91261713543843      4.48089613038862     -0.11427562894683
  H   6.35596131491660      3.33862675876025     -0.29934778969783
  H   3.33815409816494     -2.04481542526844      0.14408903297101
  H   7.90461469345554     -1.86158902824338     -0.63510585136794
  H   5.21219334210141     -5.62117221440078      0.41891318886355
