25
Coordinates from ORCA-job 12258optt
  Br  1.29190540490519      0.12465570578049      1.01509378445991
  C   3.09099230121408     -0.07405391593221      0.44537770748294
  C   3.67269800534934     -1.26582600695880      0.10684962441690
  N   5.03111198311684     -1.25504334288412     -0.15253579395625
  C   5.75316924193155     -2.49882159901387     -0.46609164771754
  C   5.23598030350537     -3.63243083560215      0.39342940568300
  C   3.75547326083623     -3.72167105145941      0.20449796887153
  C   3.02442815044252     -2.59347373231742      0.01881683656762
  N   1.69959906131339     -2.70913941470229     -0.25735367819582
  C   1.00393351141264     -3.93436222049847     -0.29916881416063
  N   -0.23934617944180     -4.03326694174187     -0.53265403927062
  N   1.76924158684892     -5.07644503999157     -0.06894594743246
  C   3.02812904170520     -4.95642901478495      0.15361593788605
  C   5.78914750581095     -0.08637773954839     -0.17271743429458
  O   6.96841113745985     -0.07866983339549     -0.45884889877899
  C   5.02632453624968      1.10427055666183      0.18479619037969
  N   3.77534131545713      1.09306577210127      0.47535094382684
  H   6.80468223094684     -2.28636420306954     -0.29776743165685
  H   5.61066047865793     -2.72368850769000     -1.52598094072055
  H   5.50468772715408     -3.46339137711906      1.44062882353525
  H   5.71328618076246     -4.56278919666727      0.08292033626706
  H   1.15085218037361     -1.87523344573270     -0.39449031685197
  H   -0.67747977443008     -3.12718906086570     -0.67881567484480
  H   3.58286577615470     -5.87971280985774      0.31683374381284
  H   5.56990503226336      2.04238725528948      0.20015931469146
