26
Coordinates from ORCA-job 12257optt
  Br  0.99139733269542     -0.08052813912272     -0.64330560687644
  C   2.86274533997194      0.10928564703018     -0.45695398237654
  C   3.63020000143559     -0.94604583345706     -0.08343266116125
  N   3.06459888472906     -2.17282848910585      0.19589642764122
  C   3.78188530086853     -3.34162105414338      0.17481123899230
  C   5.10691684296657     -3.30106918154167      0.05285469071550
  C   5.81692362103250     -2.03116480912504      0.03497091726431
  C   5.10181486326407     -0.83118749678838      0.03211726758870
  N   5.52861027860339      0.55187754245487      0.10791098021489
  C   4.73007515230428      1.56780262646297     -0.45650053401314
  C   3.44486612899892      1.38299579835689     -0.74198087367898
  C   6.68381779686461      1.04335761960413      0.79016730762436
  N   6.84838860358825      2.28475667979396      0.96049493274467
  C   7.49795608208534     -0.12646997153428      1.15375728651063
  C   7.86791186909015     -0.84200687823869      0.09979678619463
  C   7.30833358236917     -2.20720598186436      0.06976553494830
  N   7.85161135504034     -3.35030653165608      0.05216116369069
  H   2.05819598797109     -2.21039923035765      0.19893335680795
  H   3.20952985890818     -4.25176876884285      0.27532983289729
  H   5.69939384847093     -4.20109348311370      0.04482891175897
  H   5.24833244424316      2.50007269614675     -0.60329017866400
  H   2.86004480447688      2.17227830658696     -1.18847923530705
  H   7.72928696749228      2.45061393513987      1.43752485873955
  H   7.24927171944409     -0.62410557645455      2.08674617595660
  H   7.95614929006063     -0.35135484587254     -0.86721731680693
  H   8.86574204302453     -3.26288458035775      0.07609271859377
