23
Coordinates from ORCA-job 12252optt
  Br  3.04464652499722      0.28116914881371      3.06139945257242
  C   3.67687629935892      0.13708734009718      1.30396030145528
  C   3.99702080723565      1.26125339944306      0.58755740330065
  N   3.92189188482558      2.54913426302170      0.94325860008692
  C   4.37181483772844      3.24562056056032     -0.11555224970244
  C   4.76475337062079      2.41830854909299     -1.21220324665096
  C   4.52121129846303      1.14211539165420     -0.77967660038842
  S   4.68901141770551     -0.39078423788938     -1.45692401340642
  N   4.17996147884509     -1.45651338889210     -0.30380199007850
  N   3.76940396100218     -1.13887675301823      0.85258567170371
  C   4.38646775307302      4.70640371086770     -0.05293273682678
  C   3.78732228702755      5.32322819794833      1.00850317775055
  C   3.73401832804684      6.73264821613855      1.14877181364047
  C   4.30830871028377      7.47994671867071      0.17908059655264
  N   4.91463662444749      6.88871256708750     -0.87980715350370
  C   5.01919765531438      5.50932879211977     -1.10307539199178
  N   5.61663750700159      5.01789167886764     -2.12171217953377
  H   5.16116869484810      2.76066518800819     -2.14979769485409
  H   3.33700139970313      4.68733442017509      1.75990672537958
  H   3.24983605697115      7.20199365677757      1.98988990955684
  H   4.32007312845001      8.56120273813449      0.18455407180228
  H   5.33387214821140      7.47860679576784     -1.58214865000003
  H   5.99486782583904      5.73952304655309     -2.73083581686445
