23
Coordinates from ORCA-job 12255optt
  Br  1.27203434573393     -0.16661696847865      0.08253768164981
  C   3.13344877850457      0.02629148135865      0.05674686509197
  C   3.73958824706908      1.21961149229678      0.04734444026861
  N   3.08668953096885      2.44965536367394      0.05017366853517
  C   3.77235261733538      3.62685085869960      0.04462363196289
  C   5.11838862384360      3.69698978931947      0.03647230070497
  C   5.88569945413598      2.47305093693978      0.03261040040377
  C   5.18805934169163      1.24839434366231      0.03592478790205
  C   5.89185809353901      0.05081707204085      0.03120477785470
  N   7.22026677833746     -0.00708560895464      0.02481796329431
  C   7.87966848002401      1.14555213507072      0.02343911934849
  C   9.36908829500837      1.01879661310177      0.01932638128287
  O   10.11611738221029      1.95699140729415      0.01903081757189
  C   7.27299888461219      2.39823220340727      0.02633448276712
  C   5.15977483589721     -1.24246290034752      0.03301642892628
  N   5.65560201639395     -2.39229447208415      0.02136334289059
  O   3.78538055995972     -1.15653096798483      0.05022422163340
  H   2.07961382425539      2.45004852473241      0.05591077774053
  H   3.15319408597351      4.51335432608811      0.04694452142894
  H   5.61340218771670      4.65556058841489      0.03265932121751
  H   9.72699262953322     -0.02496484663224      0.01730392629212
  H   7.89391128826684      3.28504138541742      0.02452998766556
  H   6.67086971898907     -2.31028275703609      0.01046015356645
