24
Coordinates from ORCA-job 12259optt
  Br  1.10568022262157     -0.04294113713079      0.07104959945693
  C   2.96194657768080      0.10449174731440     -0.05193835637277
  C   3.60392694962370      1.29018305025169     -0.12083779765820
  N   5.01726131240445      1.30526655683017     -0.13200559564042
  C   5.71691013756527      2.49489807977164     -0.64543351544341
  C   5.29543364045683      3.74739228367190      0.11614437079559
  C   3.81246080515205      3.75155397077142      0.06039243285971
  C   3.03195392110908      2.63299303736739     -0.10251155102690
  N   1.72797376968036      3.02766480871874     -0.18735699685777
  N   1.67350342664828      4.30363475385305     -0.07965312313728
  N   2.92780263176899      4.75812604648908      0.07368202247488
  C   5.66236115780000      0.12437571823871      0.08151116449917
  C   7.13531404033517      0.06495454027985      0.42379311724037
  O   7.82402798007207      0.99364902677449      0.73587133571499
  N   5.10590265317016     -1.02819462952785      0.14069120611752
  C   3.72112961971065     -1.15571676129579     -0.05748173883506
  N   3.15547694839255     -2.28135958119825     -0.20182423398467
  H   5.45473335052181      2.61253712018047     -1.70026377805021
  H   6.78208126551672      2.33093147965909     -0.55861713009069
  H   5.72656374555434      4.62983075131348     -0.35793295045486
  H   5.65519409187446      3.70329047060154      1.14669670436369
  H   3.08493436936119      5.74884611553659      0.16738973421652
  H   7.49457277994581     -0.97531611995629      0.42026908987674
  H   3.85985460303361     -3.01609132851475     -0.15663401006388
