25
Coordinates from ORCA-job 12251optt
  Br  0.89058273463882     -0.94387445596505      0.07421296667889
  C   2.11659358053820     -2.35711122848993      0.16427021933538
  C   3.43284466508203     -2.14179861838441      0.00004782703945
  N   3.98844655957583     -0.89073480769357     -0.26548982682900
  C   5.26312671084499     -1.09133513255481     -0.34876530397456
  C   5.65483207372979     -2.48132416805890     -0.15637235500897
  C   4.49072105773842     -3.14903829783899      0.07285711626650
  S   4.30917549026690     -4.82785724668677      0.47414780154756
  C   2.57260509673050     -5.13196143777235      0.56884456580285
  O   2.19408102861537     -6.25005438066111      0.75250510069388
  S   1.31647080440708     -3.86566718091310      0.45886868155537
  C   7.05393473146332     -2.93754519543638     -0.16491923909449
  N   7.95795380991707     -2.06932629288013      0.06858194478794
  C   9.34241187540754     -2.51630011240739      0.09716854566919
  C   9.49091109595325     -3.99278166523953      0.44413672973666
  C   8.60154145411813     -4.81106674654859     -0.47666876164844
  N   7.24822296006879     -4.28637660518118     -0.38035448323772
  H   5.96734875549852     -0.29447002665386     -0.54588298286901
  H   9.87796619028589     -1.89770803715038      0.81816605158809
  H   9.79432407618125     -2.31338017899665     -0.88018384719928
  H   9.18234143499201     -4.15579018155858      1.47922014382963
  H   10.52819556596593     -4.31380155738914      0.34823639218255
  H   8.59012400826200     -5.86199632526775     -0.18642715836110
  H   8.97537454980237     -4.74846279455937     -1.50444615892799
  H   6.54086968991591     -4.75823732571201     -0.92075396956339
