28
Coordinates from ORCA-job 12269optt
  Br  2.55244565263613     -0.01595806232504     -2.97314719078262
  C   3.30590000806180      0.46086404455321     -1.27786400267709
  C   3.67728334660747      1.76144454661938     -0.98619012878184
  N   3.00934254855394      2.86576388901439     -1.44542885644971
  C   1.52993178791468      2.88930846273539     -1.47366257821304
  C   0.81654848917713      3.59858065450641     -0.29705370633357
  C   0.78949084962471      2.99052643209688      1.11897699870578
  C   -0.07011053962093      1.73585992225264      1.47861398708910
  C   1.23144127501234      0.96176404876782      1.21182931006973
  C   1.95320381805305     -0.25424010903878      1.82861427745382
  C   3.23676372511160     -0.19337342716230      0.99857478583096
  N   3.04473222103092     -0.35002087865755     -0.26649138840024
  C   4.33442576065654      0.65632574284783      1.50259787751899
  O   4.88115331155685      0.63758290417474      2.56109591425521
  S   4.90644801648280      1.90331833358918      0.23266508567467
  N   2.02481303298641      2.20906202311586      1.36960642020600
  H   3.41455409316047      3.73502718005070     -1.12712801454172
  H   1.17883989982647      1.86890535684282     -1.59372384168321
  H   1.23361110186384      3.41679050958704     -2.38185317888653
  H   -0.21162309252072      3.78015800988857     -0.62456728873795
  H   1.27322021577797      4.58913403578792     -0.20166905038491
  H   0.64556176615803      3.81195161992469      1.82070477178480
  H   -0.35876084681391      1.77646884943606      2.52941630686852
  H   -0.93335086107457      1.48095181300034      0.86355433209006
  H   1.19694670621402      0.73396754632248      0.14745595876191
  H   1.41325800511353     -1.18095403660897      1.64098034682621
  H   2.15089961517302     -0.14276078794881      2.89493164175611
  H   2.29803009327638      2.30055137662710      2.34616121098054
