28
Coordinates from ORCA-job 12265optt
  Br  9.62417630145675     -5.52685914061829     -0.08200446526435
  C   7.76284603899659     -5.73001207792552     -0.32180523263121
  C   6.99599309223094     -4.67725516067211     -0.75007999998318
  N   7.51796835439496     -3.41704377236366     -0.96826521195807
  C   8.13039108205198     -2.63574521688929      0.11353744631355
  C   7.46787644333756     -2.86360641499061      1.46091575536398
  C   6.03321652705247     -2.41114250411528      1.66244218353682
  C   5.51035860376438     -1.07533577598695      1.22633045619701
  C   4.79649016801777     -3.62977679238191     -1.44573269784941
  C   4.55145251521634     -2.56302837689232     -0.68812765042801
  C   4.81683141484668     -2.32707604264005      0.75966609310745
  C   5.57152669768717     -4.82647810838236     -1.03126006772378
  C   4.93235189898425     -6.00467203336876     -0.92789065201571
  S   5.60972265135313     -7.48346269060063     -0.40595872290236
  C   7.31647293932595     -7.08540537009735     -0.05458880547190
  O   8.00033246951579     -7.98771834168192      0.35822477382786
  H   6.84711519186058     -2.84686516775624     -1.45742299885382
  H   8.04916817627795     -1.59052663559423     -0.18894598787308
  H   9.19126225338439     -2.86085616070662      0.19644126661126
  H   8.06540836113051     -2.33848548248481      2.21196075905982
  H   7.54451482682562     -3.92508632970610      1.71098117556673
  H   5.71485329496628     -2.67692288955045      2.66451296869356
  H   6.08697479876673     -0.56143750237197      0.46606463846237
  H   5.02814204936300     -0.42336737080666      1.94111811738980
  H   4.40707265790943     -3.63440946093868     -2.45936039036030
  H   3.96634511870518     -1.76884040476804     -1.14619888060920
  H   3.91040934255576     -2.54444042486713      1.31877861903000
  H   3.87372673002172     -6.06914435084203     -1.15033248923583
