26
Coordinates from ORCA-job 12271optt
  Br  2.74725284949675      1.05347752381916     -2.90434430952996
  C   3.05719936717899      0.65467424609356     -1.09031584206715
  C   3.25434611144271      1.70007444948311     -0.20600503888660
  N   3.23807310243746      3.00576768608354     -0.52743113978987
  C   2.80697324894223      4.03443426144850      0.41387454618237
  C   1.30092572012739      4.34401602700299      0.30830970399993
  C   0.45269464770561      3.12796913283765      0.46836595131875
  C   -0.06772398171283      2.39763606535820      1.46057696010959
  C   -0.48418607161843      1.34179675714213      0.45476106353988
  C   0.35935918040436      0.10094367646931      0.22973183146894
  N   0.17048081203341      2.20972610877085     -0.58756187867428
  O   1.36536530683805      0.20865857371461      1.05953125047757
  C   2.52158385180953     -0.53815479040897      0.83418376242121
  C   3.61917778183305      0.11403958339896      1.26318117665268
  O   3.54444958828989      1.49539164372227      1.13311367513689
  C   2.87328322232195     -0.75987777515411     -0.67639232081908
  O   2.99392758875494     -1.74865791038306     -1.32126708939891
  H   3.01044660462566      3.17150658721593     -1.49885460637259
  H   3.37910455790252      4.94118322624667      0.21735482112204
  H   3.04693266414463      3.69495373926843      1.41744472474233
  H   1.09549319687752      4.80341741962309     -0.66292938326319
  H   1.04863963955857      5.07717184690420      1.07607868246291
  H   -0.02178472949877      2.43171251625030      2.53625040502863
  H   -1.54636772837115      1.17067108169907      0.29413652859046
  H   -0.41737037546879      2.50560413018735     -1.35929171466322
  H   4.61872384394464     -0.29513580679383      1.19749824021065
