33
Coordinates from ORCA-job 12270optt
  Br  2.50746148539780     -0.43495413770759     -2.54271144638891
  C   2.92240431176354      0.10835068152703     -0.78566604686452
  C   2.91902151785582      1.42167536835320     -0.40040817493556
  N   2.48321752623721      2.42200681316728     -1.24584574810904
  C   1.12469797942512      2.49805115376798     -1.80990630217191
  C   0.19257355488530      3.60267536807504     -1.25258332884806
  C   -0.36324867237628      3.43326495774876      0.19976493862350
  C   0.53708744268267      2.50781274428851      0.99508774174922
  C   1.69503272260768      3.48573146831279      1.20327310226840
  C   0.92711194579851      4.62326406361764      1.87127693460388
  N   -0.31236583292762      4.64959926998387      1.04689231609042
  C   2.98683071694268      2.88674473486577      1.69470281438978
  N   3.38676151704321      1.71197193387711      0.87151058087933
  C   4.15451333417509      0.73342573009783      1.58455628603004
  N   4.95649476082149      1.02660592914937      2.52537044720240
  N   3.91968222470809     -0.59385730098199      1.26950391441935
  C   3.34231359003557     -0.87122713479905      0.15445634805574
  H   2.94915190822802      3.30524180890337     -1.12627110106662
  H   0.66297338990406      1.52097321941376     -1.67875595562435
  H   1.21616310697017      2.65114580102129     -2.88666266448110
  H   -0.64634759679754      3.65591055951824     -1.94978838808064
  H   0.70104354826374      4.56818482287378     -1.33953720928473
  H   -1.39228975622675      3.07692977835643      0.14861323455310
  H   0.08756569652890      2.26315434055328      1.96042205283720
  H   0.76566798716666      1.57322994573669      0.49452879563531
  H   1.92259928078533      3.93178302885185      0.24801965377066
  H   1.44892121682835      5.57957191896833      1.82747038218711
  H   0.68533267382328      4.41082687422469      2.91623452198154
  H   -0.39428510153813      5.50134804890868      0.50970698512161
  H   2.89538014614866      2.50549798380364      2.71408785272701
  H   3.78449395656876      3.63533669607696      1.69508214553773
  H   5.07954812166986      2.02840723979868      2.63020605703444
  H   3.18649129660073     -1.92068371035327     -0.08263073984235
