25
Coordinates from ORCA-job 12275optt
  Br  2.29215766074955      0.93001342411939      0.15226799978008
  C   3.26117508280530     -0.71455559450508     -0.13062208405333
  C   4.43238749914003     -0.57315118760170     -0.84113996747452
  N   5.22557106927468      0.48793052120857     -0.39357816148326
  C   5.52059415890533      0.12326366582968      0.99459790443338
  C   6.99473505395863      0.24915388009081      1.36224309822820
  C   7.60761264315642     -0.92274887808431      0.62415789149266
  C   8.60788444433271     -1.11759988836877     -0.27168934321745
  C   8.32943432444008     -2.36533635170532     -0.94794808673588
  C   7.15519452365999     -2.80990150115982     -0.42968419719252
  O   6.77749279372123     -1.99543991193973      0.57991294729170
  N   6.10827809443543     -3.65417619052709     -0.84062318205168
  C   5.07135356126645     -2.98701916250414     -1.18539412441570
  N   5.14352328393907     -1.60294867363484     -1.42770944026593
  N   4.76948548393386     -0.56042872769012      1.74487698406221
  C   3.62069882507696     -1.27666726556097      1.20960992415808
  N   3.08740301923338     -2.23257430584454      1.81951637843501
  H   6.06205442244598      0.72391321778991     -0.91771484936113
  H   7.08707954781570      0.17458425826756      2.44344628989857
  H   7.44931865499418      1.17718790818447      1.01565687013700
  H   9.42103444427899     -0.44147575508594     -0.47885941785715
  H   8.87103952363505     -2.80081653095911     -1.76949277251374
  H   4.11416271292894     -3.46886359098047     -1.35111810434697
  H   6.10699607556224     -1.33349746531722     -1.59572813345667
  H   3.53933309630977     -2.35284589402121      2.72801557650906
