33
Coordinates from ORCA-job 12281optt
  Br  1.85981113330230     -1.15921123564656     -2.28555013449773
  C   2.63674563078224     -0.08389629948420     -0.96201596707838
  C   2.92165346863446      1.22163477279433     -1.16248632842514
  N   2.51138585303244      1.91745438362418     -2.31234938607606
  C   1.10618868202288      2.36790703234790     -2.22012989701466
  C   0.81023411383876      3.55417817798217     -1.27178505507389
  C   0.42505439165995      3.35276067365609      0.22625798998880
  C   0.18186841529965      1.92954146009559      0.75825194609786
  C   0.52644760820782      2.05440836250215      2.25037522738427
  N   1.63677978603917      3.00860136252287      2.34789711033656
  C   1.39927603517183      3.98339673231064      1.27475592051123
  C   2.97464664633628      2.41222901697066      2.37631503607276
  C   3.22408411854591      1.53553112320939      1.18096813576212
  O   2.91875884030974      0.23821635500428      1.39547474430420
  C   2.83345186517047     -0.68433403228316      0.35345844452439
  N   2.84738384187039     -1.91747343156708      0.59892694954719
  C   3.42409744603760      2.00091438447928     -0.05923041725165
  H   3.10588296561791      2.72477376515217     -2.46213670195687
  H   0.49712203690360      1.49729840865643     -1.97378894436789
  H   0.82168887558352      2.67208892710293     -3.22770372898949
  H   -0.01536382937190      4.09177357360001     -1.74205965398466
  H   1.65917028283350      4.24463700058479     -1.32968803040887
  H   -0.51961203000253      3.88405952555504      0.35357913404658
  H   -0.84798079672347      1.60629427293086      0.60430766747767
  H   0.81962025395845      1.19511928184846      0.27245950272635
  H   0.78927398023927      1.10554484714003      2.71640156204400
  H   -0.32901889234767      2.47139277732881      2.78958507794452
  H   0.93526272932173      4.87172142242786      1.70910576945027
  H   2.33974103123174      4.30627623722738      0.83129233920916
  H   3.07710312229452      1.82800054289090      3.29083410553527
  H   3.70574334627293      3.21995141676322      2.40267234944648
  H   2.95271567261072     -2.09011926946915      1.59630039913737
  H   3.67278337531580      3.03932843174171     -0.21529516642176
