29
Coordinates from ORCA-job 12285optt
  Br  1.04192910972383     -0.27476366212582     -0.11907547349153
  C   2.91251142898917     -0.10999106807386     -0.03049611768654
  C   3.69520767276588     -1.19326330597586      0.27401659409857
  N   3.15317722035934     -2.46112319888652      0.54552210608689
  C   2.82885221468694     -3.26640092447861     -0.65313672236206
  C   3.93330498180223     -4.22963769651704     -1.06190560164049
  C   6.21846726684058     -3.28295241344186     -0.23394838440214
  C   5.36133559351474     -2.72128736654950     -2.56593741435712
  C   5.25458166342612     -3.55722584079211     -1.35782023975028
  O   5.91227095442312     -4.02541334016177     -2.52693166807797
  C   5.83574680043988     -3.41527148510115      1.21544708140878
  C   6.05216890640504     -2.06332503923306      0.62503164530094
  N   5.05309128125981     -1.04647038795716      0.32774764706233
  N   5.64545558538293      0.11912304081774      0.03926613593521
  C   4.93375022277101      1.15275923557115     -0.24550760907406
  C   3.47215438148927      1.19311452574782     -0.30287736639574
  O   2.84440717279992      2.20167924819686     -0.56849281988647
  H   2.30379554182009     -2.31883879950210      1.07755339331847
  H   2.57929412920704     -2.60793309199136     -1.49205524304328
  H   1.93085021098191     -3.83647531454304     -0.41622517993630
  H   3.61741247859901     -4.73311849652166     -1.97782262160824
  H   4.07145009464496     -4.99531308590842     -0.29614566034685
  H   7.23636446285290     -3.52520234173402     -0.51011668698262
  H   6.08249101769287     -1.91058518514553     -2.58332395467086
  H   4.49907588794679     -2.60682089154525     -3.21572898052340
  H   6.59947596169689     -3.74481745342614      1.90555217174047
  H   4.83456726314651     -3.73002340588862      1.44729471932618
  H   6.95370590313761     -1.54497553828304      0.90766991058685
  H   5.47810459119349      2.06455328344998     -0.45955366062872
