28
Coordinates from ORCA-job 12289optt
  Br  1.53159305045381     -0.13645969259717      1.31028530040237
  C   3.31925680499788     -0.30448665982091      0.78623018761390
  C   3.89561788069216     -1.49269794993218      0.52840451678468
  N   3.35619768454933     -2.76507943150408      0.57329701062446
  C   3.91838832005147     -3.84924887939152     -0.25377257522351
  C   5.11667227203588     -3.42545257964381     -1.11740334314617
  C   6.06143386476277     -2.55131186132067     -0.29380815287834
  C   6.64005215132343     -3.29013841821176      0.93157548553040
  C   7.37793410080921     -4.52547751216454      0.49057718671007
  O   6.93251259478582     -5.63495927235870      0.60620411749234
  O   7.11691684665981     -1.96716003846592     -1.05631119179028
  C   7.19651473270363     -0.55765126940244     -0.79770982968812
  C   5.88471885659725     -0.23301907880739     -0.13593724093287
  C   5.25472036017795     -1.37673671628081      0.12023948222361
  C   5.23319921272728      1.02853822277769      0.14865739414566
  N   5.63750429123664      2.21573770073583      0.00198160242148
  O   3.96581239872242      0.88011182923355      0.69081615697987
  H   2.35900416495563     -2.79987708156989      0.71467450930387
  H   3.13968101445574     -4.23547042002732     -0.91299348989256
  H   4.22782354556211     -4.66892072662847      0.39813575730019
  H   4.78858104357896     -2.83485962406119     -1.97483530188816
  H   5.61106161631290     -4.32256449041633     -1.49117227494911
  H   5.83790447090401     -3.57468157100286      1.61346320125389
  H   7.32255747141452     -2.60434730895133      1.43850522958735
  H   8.35721504827355     -4.35976496427272      0.00591476508891
  H   7.32670376956896     -0.03861759413249     -1.74975432870234
  H   8.06006259314214     -0.33515794091949     -0.16119092109464
  H   6.58235983854461      2.22575332913697     -0.37007325327693
