25
Coordinates from ORCA-job 12293optt
  Br  4.41237275007657     -0.52306151771392      2.88999008579709
  C   4.41631412553370     -0.05564629089783      1.08569592309102
  C   4.41102948997577      1.21280052009463      0.59178945744982
  N   4.40464588196313      2.42389098102444      1.17140544158616
  C   4.40374999897989      3.28267547270633      0.14173750705560
  C   4.34491756716229      4.75948909822925      0.38852491013057
  C   2.93751752380792      5.27920324640875      0.20718330938331
  C   1.95260041531660      4.98143511676297      1.14802399480560
  N   0.69006626231283      5.37831503195601      1.05163789398670
  C   0.34917491123019      6.10294385810340     -0.01202062100018
  C   1.24555632665110      6.45631733822819     -1.00876948885497
  C   2.56168950429807      6.03406143064986     -0.89348142198491
  C   4.40954067645864      2.66169688287132     -1.13112980112948
  C   4.41544577703036      1.31045408144220     -0.85864895037450
  N   4.42555659732700      0.22400719000491     -1.67254126719104
  N   4.42871105811802     -0.93483123388715     -1.16272448576726
  N   4.42389940555130     -1.05522785630613      0.18139141512436
  H   5.01430397146659      5.27618080482016     -0.30109206438955
  H   4.68662424833602      4.94829645625038      1.40636325082244
  H   2.21165283768793      4.38661127925044      2.01951548971250
  H   -0.68790791903854      6.41476944033442     -0.06719240362124
  H   0.91933899461710      7.04740951189088     -1.85393424199137
  H   3.29233387265438      6.29036901597889     -1.65249759979639
  H   4.40434977611520      3.14317520143057     -2.09518317726404
  H   4.42551594636789     -2.01733505963303      0.48795684441976
