23
Coordinates from ORCA-job 12292optt
  Br  -0.23750288444183     -3.72446521332754     -3.08603832719648
  C   1.61001643815893     -3.52098990601265     -3.51579705131254
  C   1.96500162741296     -3.82433839453839     -4.82623930295249
  N   1.10647109684388     -3.28065700969325     -5.85525019573574
  C   1.29113211850353     -2.02269476723735     -5.70873780886008
  C   2.22251929784938     -1.49355673663347     -4.62318286722078
  C   3.42878762551891     -1.01955629150709     -5.00527540259875
  C   4.62713852339551     -1.06403922004342     -4.13733935828987
  N   5.62743491412690     -1.58510522873686     -4.74640606437088
  C   5.15313822141260     -1.91897832950773     -6.04712080193031
  C   3.94416230475212     -1.39999290889716     -6.32425566211493
  C   5.70362694128573     -3.16425455897963     -6.62137774568946
  N   4.98132582519719     -4.20690198462811     -6.72541536711284
  C   3.66017527019754     -4.24178496782522     -6.32201611699038
  N   3.28073400559194     -3.98818465421913     -5.12166939858564
  C   2.05745273770710     -2.12236151910987     -3.23523307858430
  N   2.09329843239137     -1.54345780182019     -2.11723125139122
  H   0.82831654949792     -1.32484451406517     -6.40256810433657
  H   4.67028425293349     -0.76660734329930     -3.09848218860545
  H   3.35169391857689     -1.59766529800778     -7.20414853306809
  H   6.76062596334186     -3.24677963660098     -6.86214229936470
  H   2.96665322858948     -4.57949580827561     -7.09399327209481
  H   2.21651359115657     -0.53628790703406     -2.22607980159364
