20
Coordinates from ORCA-job 12304optt
  Br  0.95554440095149     -0.10302608187261     -0.16419857973683
  C   2.80580902365770     -0.16243593360558     -0.11083237906937
  C   3.56287727556636     -1.27886744973735     -0.07274344366085
  N   3.22492884287516     -2.60449371831730     -0.04946397958696
  C   4.38009090715311     -3.22784625398022     -0.03742719123675
  C   5.53279128213962     -2.35908416370904     -0.05899569322690
  C   6.91179660222025     -2.76236921617110     -0.09011461552000
  C   8.06751892894548     -2.21992585499289     -0.57108567580481
  N   9.12463299156857     -3.08314216721177     -0.31944623310722
  C   8.57806310901966     -4.07882718605594      0.27075653260392
  O   7.24427015116844     -3.96521324170610      0.44532397105935
  C   8.22656257412446     -1.00981766346170     -1.30136890693505
  N   8.34325968926147     -0.04953519477027     -1.91738874680897
  C   5.00142117629477     -1.09188060024162     -0.06810480569213
  N   5.56542051619514      0.15217111147147     -0.04153568579918
  C   4.75429497701423      1.12784318708170     -0.06819457337403
  O   3.39582411836657      1.03849745246329     -0.11664380001754
  H   4.42612382406289     -4.30920997224794     -0.01951435890227
  H   9.04259448411233     -4.97907245268714      0.63709255730785
  H   5.06617512530213      2.16223539975217     -0.05611439249226
