26
Coordinates from ORCA-job 12303optt
  Br  1.03519560584203     -0.21062897643783     -0.42108651077349
  C   2.89736001171602     -0.09590325077962     -0.26013465415525
  C   3.49568649041933      1.10556021516462     -0.02459920875339
  N   2.95335021386515      2.33930911450202      0.20651321614327
  C   3.99873114716816      3.36611495932551      0.14229849075465
  C   3.75882909296341      4.47438221071494      1.16491441250177
  C   4.83252035524043      5.49859454776823      1.14669744656042
  C   5.87847947679710      5.79693669707724      1.94640197545150
  N   6.58282755711847      6.86121262762793      1.40255201097840
  C   5.94438830113956      7.14538189079018      0.32757595192454
  O   4.86967815024441      6.36650306719365      0.09433573514728
  C   5.27119031299363      2.54846698220695      0.42104139353844
  N   4.84783628330481      1.20638346302384      0.05126807071577
  N   5.68757407999752      0.17492671791509      0.00601710152878
  C   5.16408051217511     -0.98418069771151     -0.19597438057353
  C   3.72005756264117     -1.27520663405498     -0.36277963475781
  O   3.32000438142231     -2.41008447301656     -0.55281362026916
  H   2.03385696014032      2.52234326457799     -0.16779264865373
  H   4.05118476156782      3.79998330040766     -0.86132043218567
  H   3.70999529409338      4.02845156161846      2.15915000288569
  H   2.79434284645782      4.94827717736287      0.96763411416112
  H   6.16994622579973      5.33212031206214      2.87321185626773
  H   6.15414868777839      7.91562125240241     -0.39625475954428
  H   5.54126122883265      2.57932924490219      1.48078243246180
  H   6.12735192831294      2.85938605309504     -0.17245075676480
  H   5.84412253196825     -1.82528062773852     -0.24518760459005
