25
Coordinates from ORCA-job 12308optt
  Br  0.99652102765657     -0.54527541209864      0.27431805211133
  C   2.85752617479266     -0.36817743254037      0.17731645027925
  C   3.60715490829745     -1.46556837643271     -0.06466645548509
  N   3.29644437549349     -2.77880181132118     -0.27732514583803
  C   4.46756697586633     -3.52318686205254     -0.40886071915310
  C   4.42790258356423     -4.99262958820208     -0.64658280273490
  C   3.62310711240298     -5.71760052993023      0.39731968012557
  C   3.31128587597136     -5.31911291208967      1.66124961684710
  N   2.56875128118447     -6.19682169395191      2.40462336789694
  C   2.30817227043741     -7.26027907904452      1.71924989529776
  S   2.94627237480631     -7.27112008047441      0.12160656764439
  C   5.50745505914413     -2.67865465246882     -0.32205098368369
  N   4.98547966633384     -1.39213287777660     -0.12290556653458
  C   5.57948202631718     -0.17084992476822      0.05969714227082
  N   4.93299731933935      0.90162444774506      0.28086048222935
  C   3.51353758555464      0.91558776706431      0.36407456166519
  N   2.85988896189929      1.98385620858785      0.58975710421681
  H   2.36634820715549     -3.14822681687627     -0.16122234941852
  H   5.45335773499625     -5.36570172646403     -0.66904839519393
  H   4.00145764646538     -5.18349423883779     -1.63579907413387
  H   3.60787353843836     -4.37387140593458      2.09500997362326
  H   1.73484310107197     -8.09697766775466      2.09171611281029
  H   6.56475556561855     -2.85961978191437     -0.39614313524311
  H   6.66411138561174     -0.16811528977529      0.00418308773614
  H   3.51170724158055      2.75914973731171      0.68662253266459
