25
Coordinates from ORCA-job 12305optt
  Br  0.93541142246741      0.63145615737495     -2.27044665059527
  C   2.18959217098112      0.60041221605995     -0.87906554375172
  C   3.07864903009945      1.60215762858099     -0.68255665873546
  N   2.97791622415971      2.89432961618461     -1.20104224378562
  C   2.47162046638895      3.91860909460161     -0.21959357327063
  C   0.95914441018575      4.21054679728105     -0.17436771132237
  C   0.15537324526242      3.01698703117188      0.25610931650782
  C   -1.07771018200925      2.55713509403367     -0.11865968381345
  N   -1.10588604020257      1.21635566090735      0.23591263403720
  C   0.10562501817487      0.95075241079983      0.76700657071750
  O   0.66628518859265     -0.30125657548253      0.79193993537877
  C   1.98107128723463     -0.13431414235286      0.36438762764612
  N   2.91766149385631     -0.36497762372599      1.18395303160874
  C   4.15346969389749      0.14348522629333      0.80162289331873
  N   5.30231595818669     -0.30890925767255      0.99748756984466
  O   4.05921802662740      1.41343602097966      0.22086863811956
  N   0.82947374193542      2.01493313506789      0.89803771545872
  H   3.89552769184136      3.19996909002098     -1.50509670654083
  H   2.96569969820165      4.84525576511871     -0.50870701008370
  H   2.81134714375604      3.66222126309476      0.78508583280801
  H   0.61237786706350      4.53956426881417     -1.15501925102356
  H   0.84087020617495      5.05504499069550      0.51122443855027
  H   -1.90432794106169      3.02421380879066     -0.62370228975829
  H   -1.78560955467789      0.53232683869516     -0.05008249827703
  H   5.23688373286363     -1.19873451533280      1.48570361696183
