26
Coordinates from ORCA-job 12302optt
  Br  1.04614487332571     -0.18919874306437      0.24460052270063
  C   2.89931597974615     -0.03445558625040      0.03567410805526
  C   3.66759818714774     -1.13566666378425      0.19463307307768
  N   3.38319950355956     -2.43603083324173      0.49242849308271
  C   4.56033090337457     -3.17474376838092      0.52442240318172
  C   5.58555186068631     -2.35368554956388      0.25722651868017
  C   7.04417332608069     -2.62397911580288      0.19591031093800
  C   7.86106755322600     -2.05770465573421      1.37009514294475
  N   8.86880595257430     -3.09542409674543      1.47430164526961
  C   8.34349396830388     -4.30233192285241      1.03078604122028
  N   8.71743152818193     -5.49057557837020      1.18397312834413
  O   7.23439729212615     -4.02649131340092      0.28703929285373
  N   5.04231470535690     -1.07447398463867      0.04903972553294
  C   5.60709429023547      0.13309573075062     -0.27339388499913
  N   4.94161772092807      1.20383547556718     -0.43546212896247
  C   3.52686906361695      1.23553319763777     -0.28918913407505
  N   2.85743311163502      2.30786821602780     -0.43462556645517
  H   2.44638906175201     -2.77439987704953      0.62965221995821
  H   4.58004946013303     -4.22999653436465      0.72859366152838
  H   7.46352524839660     -2.27082799392272     -0.75380850135657
  H   7.23861098504272     -1.97696715138185      2.26651629841109
  H   8.29907822143842     -1.08686927573713      1.14296040122822
  H   9.45288731481103     -3.13335036904092      2.29397202261308
  H   9.54571230662253     -5.55514253909916      1.76615412539185
  H   6.68728639126238      0.13014988084041     -0.39067411838415
  H   3.49262119043583      3.06983305160248     -0.66082580077991
