23
Coordinates from ORCA-job 12312optt
  Br  0.87241023784471      0.10603754855171     -0.27483921386436
  C   2.72616843122918      0.06471485904999     -0.06982711873890
  C   3.53079504993279      1.17291759023121     -0.14542202997709
  N   3.21322524208622      2.46630218546381     -0.35449513837602
  C   4.38901066645817      3.08941344659042     -0.31240773190917
  C   5.50319490099249      2.24344633725992     -0.07902331205345
  C   6.87935869123375      2.70503137792192      0.06029014012550
  C   7.24987467467260      3.84253181700038      0.69914083991348
  O   8.59406927713775      4.04122854784990      0.62066074435057
  C   9.09936886724328      3.01899549051256     -0.07164884568476
  C   8.11757499450246      2.15508207223916     -0.45181714395134
  C   8.38761195268289      0.98121376125813     -1.27651660177140
  O   7.56517783580933      0.18673956518704     -1.65661068672540
  C   4.94958465350136      0.97116769052515      0.03150874870806
  C   5.40009457680402     -0.33827908010719      0.29379331437360
  N   4.59282417094867     -1.36214694895926      0.36545901710781
  N   3.29011888682804     -1.12477385701860      0.17233803521896
  H   4.44706982626558      4.15985758411509     -0.46663219235794
  H   6.69229726340573      4.58227013372325      1.24682109875819
  H   10.16462211241954      3.01878513061783     -0.23485394828816
  H   9.45244702388576      0.86062870910300     -1.55321890911830
  H   6.44353483637455     -0.57236558106926      0.44898622555609
  H   2.70656582774109     -1.94679838004616      0.23031470870403
