24
Coordinates from ORCA-job 12319optt
  Br  1.31150723120624      0.37993311478469     -0.60576079100443
  C   3.11434664246386      0.10035213191926     -0.19426663569156
  C   3.67497325738181     -1.11971158025860     -0.15438989865854
  N   3.02719009388460     -2.30686306214587     -0.47966396900522
  C   3.58543126106017     -3.55275624046823      0.02305466486261
  C   5.05944285700285     -3.62980397366498     -0.34525889754090
  C   5.79949548156830     -2.47993111913385      0.32217461839257
  C   7.21830090018877     -2.30042741340645     -0.15642626378571
  O   7.81371370483604     -3.06823309877141     -0.84625960053092
  C   7.92149832354825     -1.00977638966064      0.33224550938045
  O   9.09032647620254     -0.92487507417698      0.48603318524084
  O   7.10521721752479      0.04409379926764      0.61814097250397
  C   5.76426933464448     -0.01529174828824      0.32304141713791
  C   5.13100678372228      1.29987956138508      0.24945007296306
  N   5.66110189447822      2.43066901580265      0.39025632956584
  O   3.78128106567179      1.25372688626674      0.01891790592954
  C   5.08985713733513     -1.15976196554625      0.16231599702839
  H   2.02059247944730     -2.24164947348676     -0.44581777430075
  H   3.04073115971822     -4.37144083324072     -0.44404043904040
  H   3.47090428418939     -3.65123321113238      1.11166898823403
  H   5.17132688887435     -3.55740680320809     -1.42819472272246
  H   5.48932265494299     -4.57900727388423     -0.02851627049189
  H   5.87192213212399     -2.67420875395453      1.40412324416335
  H   6.65724073798355      2.33572350500215      0.56717235737023
