23
Coordinates from ORCA-job 12320optt
  Br  0.97811444125258     -0.28642621641228      0.30411847089809
  C   2.83514415791834     -0.17498987954062      0.09640766185887
  C   3.64002379123971     -1.25293560117000      0.13268763960389
  N   3.36996803072670     -2.59861015962376      0.37071853630039
  C   4.50668403618803     -3.36783741319426     -0.15108070294169
  C   5.70388871490812     -2.41370950099182      0.04811846038237
  C   6.34607276776696     -2.58536749861810      1.38899197012905
  C   6.63379280478964     -1.71621524190985      2.38056418309750
  O   7.22146376804154     -2.39020031011020      3.36406107224210
  N   7.29855080712869     -3.71294091601474      2.96471769059775
  N   6.79302885346143     -3.81271734953212      1.82758772495242
  C   5.04421479953096     -1.05892618367755     -0.05628490503344
  C   5.57611660098337      0.16362875136673     -0.25109344255121
  Br  7.41474871850686      0.42520926242701     -0.48823593882674
  C   4.72670689723288      1.36015704570895     -0.28406538636639
  O   5.10594197653771      2.49973881783617     -0.44680296125770
  N   3.37914281206177      1.07110767720556     -0.10322842856885
  H   2.44818639235915     -2.92157903945893      0.11364482907551
  H   4.39030866331483     -3.58371814249222     -1.21766194031744
  H   4.63504372751791     -4.30030571079209      0.39340105969222
  H   6.45689068565920     -2.55367405125881     -0.72913008873398
  H   6.49632420970691     -0.65659088203827      2.50903979608252
  H   2.76964234316664      1.87690254229120     -0.13347530031525
