22
Coordinates from ORCA-job 12324optt
  Br  0.94259488346086     -0.46403041407482     -0.18864052483163
  C   2.61894668330869     -0.65382394819592      0.60793180639651
  C   2.81952331053587     -1.50189549649804      1.61832066621265
  N   1.99675406210163     -2.44489775718920      2.19274716477841
  C   1.61019156103730     -2.23755336907391      3.38713587454210
  C   2.06397309581223     -3.24918582143244      4.33698260078189
  C   3.38918951273406     -3.42542582769246      4.16047022836431
  N   4.15669888951378     -4.27936094157602      4.96202494058425
  C   5.36880327372604     -4.16552507529209      4.54345527496176
  C   5.53971587846744     -3.21312066237436      3.44732165216631
  C   4.31672144939048     -2.71351565697745      3.18547713381015
  N   4.06904932611147     -1.64261537053511      2.27802836664081
  C   5.07985014922585     -0.74691061790859      2.00676683246052
  N   5.10451447956513      0.12543113091454      1.08703022657852
  S   3.94797156582916      0.26347188497640     -0.07766371545544
  O   3.57133715399392      1.63362808294921     -0.15575846489265
  O   4.41730915208925     -0.40983949750119     -1.24404046850688
  H   1.31223072461040     -1.25050624123434      3.75932134873035
  H   1.53523767786029     -3.67342285689982      5.17863257386984
  H   6.17040468997511     -4.74795022897241      4.98143468180566
  H   6.47034889768653     -2.98831588782576      2.95145999254737
  H   5.91563358296445     -0.80163542758613      2.69756180845509
