25
Coordinates from ORCA-job 12323optt
  Br  1.16424445628141     -0.52620665574238     -0.46357269830631
  C   2.93748191729881     -0.12593616656948     -0.05936378868589
  C   3.42863688435220      1.11014089193771     -0.00898263104045
  N   4.81062987673866      1.32380694143381      0.29296794537121
  C   5.06986523298643      2.67743748139761      0.23289124228577
  C   3.96494942251784      3.38798772313186     -0.05706762640985
  C   3.82548336764286      4.86319238261640     -0.21408790791950
  N   2.97527515359558      5.45204342949121      0.84485420438560
  C   3.55526738148946      6.76134119775903      1.18616946138294
  C   4.95686538644848      6.71759967876410      0.62805638905945
  C   5.10955003349404      5.65939511379139     -0.15277212134252
  C   2.83539252953068      2.45325243868841     -0.21163160840814
  N   1.60432897865117      2.68162978905294     -0.44148756220414
  C   5.72127769573010      0.30787007972730      0.42736795538478
  N   5.48069541036434     -0.93540679628109      0.42192645180083
  S   3.91740633370010     -1.55164496362104      0.24058761002541
  H   6.07601385577577      3.03002794291157      0.41042193881817
  H   3.34415310182874      5.04464227214755     -1.18707762137129
  H   3.03541193887503      4.84923412873289      1.65706915316554
  H   3.51846662557601      6.93325766426436      2.26269131524330
  H   2.98822112583096      7.56956919671380      0.71185417602352
  H   5.69414566519982      7.48962303232744      0.80163376151332
  H   5.98573964942621      5.41467067633086     -0.73826720997378
  H   1.43658861791369      3.68735171736188     -0.49484252100537
  H   6.74990935875156      0.63812080363182      0.55266169220739
