22
Coordinates from ORCA-job 12321optt
  Br  1.08620601131327     -0.03493393201026     -0.05868555617451
  C   2.95221566324147      0.02028836061025     -0.08597816177626
  C   3.63997557335176      1.19227049615204     -0.08429072539347
  N   3.23250190793431      2.49588968319420     -0.06970129426318
  C   4.34891884812424      3.19293140754018     -0.07042267984823
  C   5.55959745933746      2.41066326959119     -0.08334183738929
  C   6.92512686994357      2.89940353659474     -0.07288141287530
  C   8.06257591146469      2.12873778394998     -0.02682661848243
  S   9.45318558861157      3.10212581870566     -0.01511997161275
  C   8.44233665373264      4.48875220736943     -0.07596169778784
  C   8.99763627647400      5.85672513004126     -0.10095172516043
  O   10.17392040109759      6.09258754517580     -0.05218313690567
  N   7.16572701702147      4.24494036714761     -0.10252015451058
  C   5.08812164397476      1.12843805418058     -0.09389192512375
  O   5.75679075909872     -0.03589412067525     -0.10834597595154
  C   5.04249283871019     -1.16935247853349     -0.11676174942389
  C   3.69331658970406     -1.19882986417005     -0.10593787328563
  H   4.33341608459274      4.27481997640414     -0.06057316718402
  H   8.12421562492985      1.05353853528014      0.00225463008061
  H   8.23097550457051      6.64591448698929     -0.17267987839465
  H   5.67057173670252     -2.04678378339701     -0.13099057623434
  H   3.18617503606846     -2.15123248014044     -0.11220851230285
