22
Coordinates from ORCA-job 12333optt
  Br  2.97315077572202     -1.75401395227933     -1.82283931816504
  C   3.12645365582722     -0.35528446496605     -0.56836146686697
  C   2.23267580551978      0.67745791200470     -0.55336292167287
  N   1.18383926342601      0.53070004571578     -1.51427717484024
  C   0.61593176134141      1.49537794915679     -2.11766402965114
  C   1.11631585836761      2.82366557075264     -1.67460249296416
  C   0.65980821207295      3.03543767327152     -0.42598002594833
  N   1.51915672453058      2.81293961074039      0.64351369864451
  C   0.68829443627698      2.82059103585841      1.78830477196107
  N   -0.54410406418101      3.04867265317095      1.57430877420642
  C   -0.69671566636894      3.13615653006651      0.15882973477939
  N   -1.75862462731839      3.31632899604166     -0.49530049879491
  C   2.45432807677908      1.73715489617238      0.47191861774438
  C   3.47224479097840      1.75526263769513      1.36552442211632
  C   4.50844995468289      0.77134093635409      1.54817220547517
  O   5.37821224896636      0.81998001584066      2.37967426648778
  S   4.49880738559516     -0.61879105205485      0.42773840124796
  H   -0.16999813427684      1.28980369466520     -2.83562058218776
  H   2.19259841223518      2.91602024897778     -1.79983926479698
  H   1.12298557273635      2.60119293327225      2.75500526177169
  H   -2.55254446053419      3.40352298974883      0.14013006593288
  H   3.54673401762135      2.60248313979454      2.03672755552085
