27
Coordinates from ORCA-job 12347optt
  Br  1.90054256151821     -3.24248470855509     -0.69879997316294
  C   3.18936913118038     -1.92973502725578     -0.33514483968151
  C   4.11746429998043     -1.61974807475090     -1.24612638592663
  N   5.06734499765361     -0.63730696777969     -0.91490856787537
  C   5.61374055723543     -0.74998217517306      0.32471847259055
  C   4.95756019826437     -1.43103870188020      1.31148220521207
  C   5.73777978221774     -2.73148314235898      1.43280569138048
  O   6.08909090764768     -3.57894623965817      2.50210555714511
  C   6.59777103667809     -4.69586983271814      1.74989225217219
  C   5.72730090495078     -4.71456786531237      0.43757993406713
  C   6.34983704215921     -4.43650484592362     -0.94602508125298
  N   5.28793145345202     -4.49197430271713     -1.93700166931481
  C   4.51286942070215     -3.67944526737942     -2.46853196416576
  O   4.38141749108003     -2.25377673267116     -2.41323967822288
  O   4.92778192147836     -3.59316266384514      0.64963551560027
  C   3.47732474847242     -1.58091709007128      1.08401972931911
  N   2.57732222283209     -1.58239402953446      1.97008645826146
  H   5.61161670037650     -0.25540358105739     -1.67208791851792
  H   6.70072790421779     -2.55227783054709      0.93213379764934
  H   6.47237745062933     -5.59305812709721      2.34823640528609
  H   7.65908043064890     -4.54180921456219      1.52920747336694
  H   5.09677560948980     -5.60170558781909      0.38157009789739
  H   7.08319042921935     -5.19541145804756     -1.22271142219810
  H   6.84842249119934     -3.46130493411134     -0.91894800599175
  H   3.80530146537803     -4.02225414966402     -3.21599095416895
  H   2.99029117364893     -1.41632983531394      2.88816536291307
  H   6.66676766768895     -0.49810761419553      0.39087750761841
