24
Coordinates from ORCA-job 12363optt
  Br  0.95912931776198      0.00806109654760      0.18246857055539
  C   2.86032378443868      0.04717616663217      0.18095780172317
  C   3.56006807003305     -1.11534508214917      0.09683823711869
  N   2.97248679795727     -2.36454360567487      0.03526821250553
  C   3.67267527773245     -3.51452390657061      0.03987404563117
  C   5.03191459389178     -3.50768196172717      0.10379546542397
  C   5.69179259708990     -2.25608334014817      0.13829130446426
  C   5.00444235824103     -1.07696184789671      0.10352728310812
  C   5.66099090559543      0.24856742959017      0.08695755610191
  N   6.88763464158773      0.49887890131521     -0.15925517986015
  C   4.73533686731062      1.37461278308875      0.34563320283673
  N   5.32307679991716      2.61269727503753      0.61979824815616
  C   4.80668247872387      3.62548476719668      0.10059469935521
  O   5.30621529076451      4.85020174753633      0.45480247966553
  C   4.81531852497819      5.94470784272678     -0.17133336844013
  O   3.98717282984591      5.94754011317331     -1.02406239947112
  N   3.45220419568414      1.25025813313152      0.34152883012197
  H   1.96120279475288     -2.38709956683460      0.01577487693826
  H   3.08647406407142     -4.42178275642993     -0.00023899795748
  H   5.57949112750979     -4.43636514559032      0.12314791794342
  H   6.77369987719036     -2.23799359849529      0.19661386901643
  H   7.41073588367657     -0.34634685033538     -0.38316339368748
  H   3.98218462014179      3.64788538741478     -0.60791998897024
  H   5.30774630110343      6.83265601846138      0.23810072772068
