30
Coordinates from ORCA-job 12366optt
  Br  1.06238150858287     -0.00453771287758     -0.13889808437000
  C   2.95359050494431     -0.08336957186234     -0.01268546755814
  C   3.59139267527017     -1.33344354130987      0.00444059826728
  N   2.88280394323777     -2.51133013850386     -0.02629231004052
  C   3.56021912202230     -3.74223740396697     -0.37144677056494
  C   4.84782073148019     -3.84635731154842      0.44318605743220
  C   5.75046896448797     -2.66593377057923      0.11486857156729
  C   4.99374661409802     -1.36058808890919      0.08384178613317
  C   5.68477515232159     -0.15761764835061      0.13759603718187
  O   7.05670089124863     -0.24773176928937      0.23641102779757
  C   7.81825007798689      0.60675502596719     -0.50405085175468
  N   9.04577499092592      0.77086861185530     -0.33586213329531
  C   5.04836466445888      1.07289542172752      0.13639725697289
  C   3.66465567934020      1.09697730764434      0.05611573508256
  N   5.55578198823179     -5.08512269703524      0.21218510938316
  C   5.18342493850109     -6.26610518223520      0.80081203568379
  N   5.57703253034988     -7.44321392272550      0.54540784510245
  H   1.90994316536697     -2.43348088468828     -0.27548199635656
  H   3.81419449428347     -3.79221430460073     -1.43997546631156
  H   2.90422265995974     -4.58167532177976     -0.14098739023354
  H   4.57570473736639     -3.80631632570913      1.50146636684631
  H   6.21695581276333     -2.83657933431664     -0.86290055391995
  H   6.56541873393967     -2.60890125913484      0.83616124728743
  H   7.26994701610527      1.12480848648982     -1.28898742562178
  H   9.39195667033558      0.21520269623778      0.44698566760983
  H   5.61625741649017      1.98910748306147      0.21810291289855
  H   3.13350398931771      2.03866690823462      0.05207467026123
  H   6.13278582292906     -5.14240460388638     -0.61460444852595
  H   4.46751788026391     -6.12240636046259      1.61239996003151
  H   6.24240662339015     -7.46471478744629     -0.22827998698615
