22
Coordinates from ORCA-job 12365optt
  Br  7.82531072729453      0.65201117807532     -5.34083607936937
  C   7.16742335739407      1.99258227808049     -2.62539204179110
  C   5.77094089344229      1.93966767470373     -2.48483327683915
  N   4.82123817080854      2.09765571591536     -3.42534034839184
  C   3.58596347301094      1.97315563477532     -2.99576312165119
  C   3.22459862519771      1.69862253519736     -1.63619468549288
  C   4.18451217487896      1.52950768801238     -0.68499940982597
  C   5.52230449273224      1.64482981179698     -1.11415608109973
  C   6.76450363072246      1.52100244701056     -0.47670693551764
  N   7.71732655443546      1.72320030708819     -1.42115561914823
  S   8.22224351382705      2.33354522781812     -3.95938743026275
  O   7.82576377789397      3.51795259417647     -4.63417648387048
  O   9.55001219929398      2.16502249649241     -3.45109891844954
  C   7.09131514253890      1.25619365641095      0.91591556208091
  O   6.25454340483779      1.09477516903498      1.76756580611993
  C   2.52129765587053      2.11373591709153     -3.95119313035126
  C   1.59533668841544      2.21411446615468     -4.70416461175110
  H   2.17369403378559      1.62509781450436     -1.39454109632008
  H   3.94893242640425      1.31482617875618      0.34835205663595
  H   8.17147067990046      1.21423720435345      1.15327441462096
  H   0.78463704331511      2.30651023489954     -5.38738614608105
  H   8.72063133399947      1.70375376965159     -1.27978242324429
