28
Coordinates from ORCA-job 12361optt
  Br  0.91159899416294     -0.15742391206461     -0.16954277249161
  C   2.79062098041034     -0.04001461612714     -0.01436698371726
  C   3.55650917351990     -1.14867549807598     -0.10135217035499
  N   2.97978343163956     -2.41133161331054     -0.23095289106890
  C   3.74772398922578     -3.59924981486468     -0.55060645479936
  C   5.09956007748624     -3.52996222689920      0.13742412738746
  C   5.81864048602526     -2.26524418816150     -0.30198473332748
  C   5.00918419088342     -1.02716960221784     -0.00953426836896
  C   5.64416043069362      0.12158391367207      0.28164735213752
  C   5.04955572819295      1.42864821827294      0.51321556251192
  N   5.65458957396296      2.49905511600410      0.84033284567007
  S   3.31231086231887      1.59155027845060      0.25616218151514
  C   2.94477158017217     -4.82303325167877     -0.08347072791564
  C   1.58888352610358     -4.95047991614129     -0.77383521485822
  O   1.16642932684422     -4.16177452803439     -1.56934160089631
  C   3.65773143848209     -6.08200554531366     -0.29013315179145
  C   4.21578562982504     -7.12126063364915     -0.49470714330611
  H   2.07343682623079     -2.39880592150004     -0.67758130539415
  H   3.90342315679081     -3.70001136640764     -1.63409640522390
  H   5.68388016955078     -4.41382696718938     -0.11588987793143
  H   4.94970573943511     -3.52268348178630      1.22140424252803
  H   5.98688279782458     -2.31585451305751     -1.38334617432437
  H   6.79784502222713     -2.18124106364033      0.16843553673008
  H   6.72858262526638      0.10668154911644      0.34163977156706
  H   6.65605987194676      2.33603384250818      0.93164923971671
  H   2.73523767583446     -4.70711745347946      0.98810948756039
  H   1.01011891752071     -5.84778958106953     -0.49220823230318
  H   4.71598777742346     -8.04459722335533     -0.66707023925108
