29
Coordinates from ORCA-job 12383optt
  Br  1.17053484148987     -0.04749186481481     -0.10663618302622
  C   3.04342082217720     -0.14712370872637      0.03800308694637
  C   3.70412817580971     -1.28779786138032      0.35244199665153
  N   3.10858390211662     -2.53696555008541      0.61805065104753
  C   3.43964010440759     -3.58911823234795     -0.35746361572367
  C   4.77820583033009     -4.29029874498682     -0.07534658079297
  C   6.02306128859807     -3.42559637178432     -0.25574877716242
  C   6.11063266478111     -2.26530054424758      0.73785798454561
  C   7.46160375327585     -1.49972753853802      0.69408993725497
  N   7.16267503166813     -0.18552706188202      0.09147053299368
  C   5.78123358771095     -0.03890898780789      0.09400568292434
  C   5.12518643744376     -1.17386752851924      0.41660109378470
  C   5.08841455818092      1.18668000629883     -0.25334520566971
  N   5.56602325094959      2.33082976459332     -0.56876317346792
  N   3.70975044392008      1.03023711008656     -0.18849224689470
  C   2.37064921997038     -4.59658262442056     -0.31501798336527
  N   1.54363079920753     -5.38760204704032     -0.26737683131087
  H   2.10677043077516     -2.45170435684688      0.73272208582675
  H   3.45491981755323     -3.18244366736101     -1.37799352790621
  H   4.84198744409366     -5.15058860831947     -0.74444138877933
  H   4.73687997352429     -4.67512746722086      0.94640379064268
  H   6.07086304038010     -3.03059590536934     -1.27574326916784
  H   6.89635563235107     -4.06910345553287     -0.12334577219778
  H   5.92432714368998     -2.66561975239985      1.73859203251877
  H   8.20131419899421     -2.03172737563417      0.09440539330783
  H   7.86544249368720     -1.37590125218734      1.70056464913266
  H   7.68577521262516      0.59430172090777      0.46584415058867
  H   6.57959643764073      2.30672846812715     -0.60276904249407
  H   3.17839346264766      1.86194343743983     -0.40256947020713
