24
Coordinates from ORCA-job 12390optt
  Br  1.07255954473878      0.05602427093269     -0.13258556286033
  C   2.92619669236552     -0.08448685438707     -0.01517632026524
  C   3.59688225509392     -1.27113853622840     -0.06783870512488
  N   2.89783020631586     -2.44751087417353     -0.21053459109930
  C   3.58067017356252     -3.53234143207165     -0.29216655571221
  C   5.02294495872685     -3.58839041102194     -0.23108445846829
  C   5.75746300815373     -2.46373472025269     -0.08494853580188
  C   7.22316020481925     -2.50702548831064     -0.03090562300521
  C   8.03339913203582     -3.12802281517646     -0.92513242149464
  O   9.32672091553552     -2.99574444268876     -0.57111145137606
  C   9.35473053578225     -2.28080699125421      0.57663418943483
  C   8.10385100353862     -1.94393192543248      0.95754988586164
  C   5.04483623088126     -1.19389923297869      0.00179811851905
  C   5.65940505131039      0.01229872106181      0.10652251606297
  C   4.90854649141617      1.24039763529667      0.18657432209242
  N   5.28521013688280      2.43719627629466      0.31331542884524
  O   3.51816392990193      1.08372055854230      0.11047307984312
  H   3.02623165824663     -4.45914872733497     -0.40219795991589
  H   5.51151202605492     -4.55323882157544     -0.27954957505200
  H   7.83236375706835     -3.65986382555092     -1.83912753920354
  H   10.32746992466287     -2.10251306828110      1.00022059526014
  H   7.82485792829100     -1.38836688282538      1.83709772070520
  H   6.73611853775378      0.09697957754445      0.12098441645640
  H   6.29787569686118      2.48554800987178      0.36318902629845
