23
Coordinates from ORCA-job 12401optt
  Br  4.66724226007007     -3.49333373363968      1.50456519707087
  C   5.33406741789843     -1.95882140768674      0.65393751453324
  C   6.44297322950158     -1.24393877997379      1.14657630730474
  N   6.81624607171237     -0.14433767912310      0.53793618659625
  C   6.39953235669163      0.01828484094464     -0.72534706991477
  C   7.66733476692603      0.45367533504279     -1.36611059422525
  C   8.32581349672130     -0.54585473331194     -1.97475987193694
  C   9.55811196498835     -1.02964951935495     -1.33431383188321
  N   10.25114766468918     -1.98009358183192     -1.83236244697547
  S   11.14361968905013     -2.94282673316816     -0.77666777407347
  C   10.19742412290245     -2.84842827884255      0.67366023265834
  C   9.43238595337027     -1.76772675448713      0.90590064907571
  N   9.71246249624297     -0.62435142350109      0.05930001809942
  C   8.46993543997647     -1.85023346632924      2.06818143816401
  N   7.21628888647473     -1.68353175370665      2.21822441579343
  N   5.36170425581256     -0.56476166420623     -1.28360437526772
  C   4.77537983936837     -1.50274611869279     -0.52724937568899
  H   8.22348103364499      1.15784737786545     -0.76528618437031
  H   7.78600699483648     -1.29359770855248     -2.54453679584569
  H   10.18587711055112     -3.73929518325909      1.29084682992643
  H   10.70901554706091     -0.43744316395254      0.18303890084646
  H   8.97351459154758     -2.23875563064952      2.95529952933202
  H   3.87843480996196     -1.96608023958326     -0.92122889921909
