23
Coordinates from ORCA-job 12405optt
  Br  1.33156492508059      1.95933919676512     -3.05290906720739
  C   2.40073082352102      1.44638125779100     -1.59822264116699
  C   3.47460318731739      2.22832447323606     -1.15430113261076
  N   4.35169913989678      1.78306804687196     -0.27305688627238
  C   4.09012530822650      0.65062046205657      0.36666030137073
  C   2.84473453770075      0.02854569465817      0.29873381732150
  C   2.43982227478163     -0.97089262271867      1.22778061847513
  C   2.08258300674196     -1.80651039467321      2.00896015444190
  C   1.96603831046274      0.50243220895360     -0.68284715791925
  O   0.63572012158329      0.17709145243473     -0.65134912927753
  C   -0.11205933991461      0.66143855625485      0.39494064303491
  N   -1.12032067392419      0.02867022815288      0.75733768786677
  O   0.32246770193852      1.82522634394993      0.98530973708684
  C   0.82224519650845      2.82871859343002      0.17921149842747
  C   1.90274229122997      3.52970979669305      0.48674881659379
  C   2.66955831031201      4.24419182109064     -0.59138239104694
  N   3.44159996020152      3.62144788842555     -1.39348029674746
  H   4.84552398847648      0.27851019966052      1.04780459594289
  H   1.76050018422435     -2.54941956067759      2.69900633940438
  H   -1.62377114075470      0.54533674398593      1.47251047028555
  H   0.29390086454179      2.94485680378511     -0.75973068252671
  H   2.41274643095427      3.35496909139837      1.42895987859295
  H   2.60924459089347      5.32494371847538     -0.69668517406943
