26
Coordinates from ORCA-job 12402optt
  Br  3.39462278596401      0.91261280076940     -2.48985190867118
  C   3.14549167565622     -0.12016143266058     -0.92270302416358
  C   2.28169175050183     -1.23175671142651     -0.91942085884723
  N   1.55328476559332     -1.61482292710691     -2.06382579031496
  C   0.31258860980303     -2.25150153023267     -1.79497489167978
  C   0.30104443433472     -3.50846252661554     -1.32151138610601
  C   -0.42853213133352     -3.70091799485123     -0.08426863884584
  C   0.29351699554552     -4.25841944871061      0.91627795261924
  O   0.58489396660562     -3.40538692816144      1.97049039906799
  C   1.87188502619943     -3.70992660971969      2.31944892940689
  C   2.07726583977213     -5.11932029122848      2.01611821011119
  C   1.19379992861609     -5.38505554649300      1.02976050562840
  C   2.83202840761242     -2.75755716321657      2.31628439778798
  C   2.82421787115931     -1.67458509857581      1.30684931332759
  C   3.64860519238005     -0.55573006594437      1.38289431281995
  C   3.81097274611241      0.21510202890285      0.23861383363000
  N   2.16329259248395     -1.96270745901253      0.17408039804379
  H   1.54225045174347     -0.89316703471972     -2.77066788646281
  H   -0.52370648041027     -1.58760320489999     -1.58802914109603
  H   1.16077458130493     -4.14010977804316     -1.51222011959688
  H   -1.02243812104134     -2.84970054971979      0.22593909176912
  H   2.91647101080444     -5.71700801757748      2.33438763199417
  H   1.15007272116070     -6.26484217371471      0.40776076439071
  H   3.80561238251764     -3.03345874573786      2.70218428641464
  H   4.17321749394775     -0.31128490026087      2.29578835438766
  H   4.45907550296612      1.08177130895729      0.24659526438499
