25
Coordinates from ORCA-job 12400optt
  Br  1.06681070971938     -0.02110119875649      0.31334493955402
  C   2.95304154273025     -0.00660958170324      0.16156903116611
  C   3.63186554536451     -1.09909459294420     -0.37352577410963
  N   2.98516763242526     -2.23738679375021     -0.88689386090714
  C   2.99964847881203     -3.43825747313956     -0.02893103842651
  C   2.08764827271020     -4.42937854157769     -0.60246664424053
  C   1.31993931953163     -5.21397468458345     -1.07638977746550
  C   4.39744203097422     -3.99053508010477      0.12294314731977
  N   4.58791456457141     -5.10358926655819      0.76618731076781
  O   5.93745385647180     -5.31420260316983      0.76881755241891
  C   6.53681722981883     -4.30815049607897      0.12810655581278
  C   5.62501716086858     -3.41672940272557     -0.31986073754320
  C   5.81601158687226     -2.13041186728578     -1.05751002242651
  C   5.02788543510871     -1.00900235883932     -0.43628943593157
  C   5.63484522509968      0.13947489456505      0.04681836250930
  N   4.97746563064603      1.18006092087854      0.55139136681923
  C   3.65676449648802      1.10767232520861      0.59936458511547
  H   2.02034339007187     -2.03013646235834     -1.11592423349815
  H   2.63530600645918     -3.19265404066829      0.97788674679601
  H   0.64413736890962     -5.92211867581231     -1.49336673887314
  H   7.61182399502485     -4.35422306434441      0.06571751056920
  H   5.48176252953399     -2.25316568510269     -2.09160872309701
  H   6.87408103606552     -1.86938561611140     -1.07909488223576
  H   6.71600959044743      0.22812802137354      0.00870281091226
  H   3.12379736527467      1.95677132358902      1.01101194899379
