23
Coordinates from ORCA-job 12406optt
  Br  1.78358857530315      1.55808582758009     -3.03617707768791
  C   2.82399866594735      1.02352353858509     -1.56571554637970
  C   3.58893270210164      1.98282408938285     -0.86733805700725
  N   4.54744735066104      1.64285982114043     -0.04186623711428
  C   4.68321679323326      0.35216048516655      0.26578938530298
  C   3.69869343517806     -0.58912612818395     -0.03492258046862
  C   3.69482909133145     -1.85956382647578      0.61258508320881
  C   3.71647183514208     -2.92410780866496      1.16326392557246
  C   2.68620715143003     -0.20168326438171     -0.93932840751978
  S   1.05981048061705     -0.96050271140648     -0.94088870488224
  C   0.43829400685486      0.31687071909300      0.16145074781672
  C   -0.18378682081329      1.42166169348334     -0.24527108576265
  C   -0.44440641167948      2.59871291971371      0.64347691846136
  N   -1.32267383331048      2.71515931387876      1.53491430107982
  S   0.56798297715653      4.06696755666935      0.27425154540445
  C   2.05029447602516      3.14027666110495      0.05973197793647
  N   2.95328050744729      3.26466240566421     -0.82288781384864
  H   5.52658789946867      0.07823806973301      0.88705247665852
  H   3.73080487195422     -3.86931541748248      1.65149574823981
  H   0.73158399786125      0.19535770820293      1.20076465923313
  H   -0.42569089679006      1.56848165157643     -1.29156504765114
  H   -1.89449032707163      1.87040962501409      1.59250752751126
  H   2.06202347195181      2.28904707060655      0.74267626189643
