26
Coordinates from ORCA-job 12410optt
  Br  1.35497087016664     -0.05487485339921     -0.59446380135076
  C   3.23292122754116     -0.02730073306971     -0.32160087025240
  C   3.90298931312976     -1.23295620275844     -0.19143199505728
  N   3.45183290938051     -2.53232609346170     -0.29123939245868
  C   4.47088358520317     -3.40640624691038      0.30076135054791
  C   5.79080850634576     -2.60297550350487      0.13565958481253
  C   6.52978678795038     -2.96597155317339     -1.07505390166739
  C   7.13002418379395     -3.26372198321752     -2.06698475619541
  C   5.26985281920684     -1.18242491299030      0.04815400637674
  C   5.92552752089610      0.03167473571557      0.12446840478905
  C   7.32982873805346      0.09694249630525      0.36837389546180
  C   8.50970027742867      0.14340472234645      0.57573121800364
  C   5.14602209216216      1.19443107490680     -0.03656628542894
  C   5.77331535885349      2.56655060493151      0.04980525568516
  C   6.10885551530611      2.93002931596077      1.42669010978542
  C   6.37598679972416      3.21136337756233      2.55945086391438
  N   3.83868379832572      1.13704606734600     -0.24935184619451
  H   2.48216407770393     -2.70614234307359     -0.07196784102025
  H   4.51313361331481     -4.36456992611160     -0.21097896102035
  H   4.27867485241387     -3.56977345581190      1.36529455773783
  H   6.44512639346790     -2.73638097088755      0.99840991838164
  H   7.66866168317095     -3.52451253433914     -2.94647418925441
  H   9.55550977625023      0.18995986680826      0.76539558592039
  H   5.06561436697577      3.28683972809336     -0.35896792115375
  H   6.68388427383421      2.59628345290906     -0.55391788829782
  H   6.61224065940020      3.46481186982395      3.56480489793545
