25
Coordinates from ORCA-job 12416optt
  Br  1.56262480144744     -0.55413300214579      0.13269802658411
  C   0.94879055294469      1.22422965000128      0.22247697466906
  C   1.81644955881192      2.26290949567832      0.13204553855430
  N   3.13578223505474      2.04987976237994     -0.25112666199328
  C   4.15007196463066      2.73962976381156      0.09391600156963
  C   4.24906110038218      3.93103401001431      0.91370573520551
  C   3.24649412282342      4.80995466784907      1.10288512362048
  C   1.87677832583848      4.71408158825023      0.69019827907585
  C   1.23016783892143      3.59384606418616      0.27388231815076
  N   -0.13518066548274      3.65023758199464     -0.03995417160746
  C   -0.66258659698588      4.86746375876487     -0.51330532523576
  C   -1.86494003559031      5.38860468118010     -0.28091027583494
  N   -2.92297542057878      4.83592920397414      0.42039428839511
  N   -3.22195159569451      3.53224677799179      0.53191776990542
  C   -2.37972743257330      2.58553834295440      0.38800049103187
  C   -0.91477524667641      2.53425355025374      0.22022438965612
  N   -0.39899973275167      1.36932770200480      0.38254856178406
  H   5.09428696883482      2.39005963013952     -0.32520486911168
  H   5.23831636847820      4.18224632623930      1.27345074879959
  H   3.49280449567970      5.72466480718700      1.63160330741847
  H   1.26949194157214      5.59709605827207      0.83829980144542
  H   0.03281995456048      5.42520997497036     -1.12394583004133
  H   -2.08319961710472      6.35715400193452     -0.71049506933790
  H   -3.75754418532979      5.39435055892944      0.46420489386133
  H   -2.78905970121221      1.59018504318420      0.50548995343526
