19
Coordinates from ORCA-job 12422optt
  Br  2.55480054614747      1.20873079347006     -1.58638305806267
  C   3.97188185519522      0.44067281211616     -0.63811852116941
  C   5.10098700593217      1.11611801548320     -0.37013431753685
  N   6.13956010092936      0.53270433063057      0.35538592593202
  C   7.16397498377878      1.46698254305598      0.54353472658951
  C   6.84598220527833      2.66763927609589      0.02709764197665
  C   7.60709507264726      3.85904154008828      0.06809860144367
  C   8.22754559022697      4.88399047185057      0.08437153845417
  C   5.50973565089885      2.54854540007059     -0.61908780940953
  O   4.87388962421084      3.38448024351020     -1.19446702260093
  S   6.43767071637523     -1.11187101540670      0.27527398075668
  O   6.95333143117295     -1.43419269633968     -1.01391313489230
  O   7.18262377859614     -1.45807277267842      1.44152111288543
  C   4.78030390530510     -1.64184826232566      0.37490800760577
  C   3.78675726576101     -0.90620734272488     -0.13250846122436
  H   8.05382628953966      1.15936538203701      1.07173819895127
  H   8.78273360796766      5.79164357899822      0.09780042382231
  H   4.65003572604341     -2.62860252316506      0.79787704777084
  H   2.78026464399353     -1.30611977476632     -0.14199488129229
