27
Coordinates from ORCA-job 12420optt
  Br  0.95941613268007     -0.35621978488386      0.23528015240284
  C   2.82052617406771     -0.19127404042324      0.08529942826578
  C   3.59793903682684     -1.30809090108046      0.06848845638279
  N   3.28833694147413     -2.63585166137560      0.15168943120112
  C   4.44840202338243     -3.25251910669083      0.07090723683543
  C   5.59148678858591     -2.38867955249545     -0.06919895070328
  C   6.95350818484990     -2.75178930412175     -0.18584371053150
  C   8.10818956420562     -3.06377470138974     -0.28476759321825
  C   5.02506755511114     -1.13844370548263     -0.06830229488930
  O   5.58748808710750      0.06501064392102     -0.17607846771067
  C   4.79367243370321      1.14083183784403     -0.15340241210341
  C   3.44442509699891      1.09020077604137     -0.02154199138741
  C   2.65723451438880      2.37506279250865      0.00338284769343
  C   2.15260710111352      2.80004962603228      1.38398239020460
  C   1.97935631247230      4.30201735384645      1.17944138525216
  C   3.17868130538810      4.63671722070494      0.29645337772068
  O   3.48415031678226      3.44371015026334     -0.43025826933726
  H   4.50872016851457     -4.33238299216902      0.10888601426942
  H   9.13121265990383     -3.34033929861625     -0.37165670587938
  H   5.33745421067939      2.06460808165615     -0.26375981314650
  H   1.80651330866028      2.27235232844674     -0.68134005592524
  H   2.92450162193686      2.59519000266484      2.12940269424973
  H   1.23992929212482      2.28476438273484      1.67324675944955
  H   1.97484452287531      4.86833726296494      2.10888775229333
  H   1.04667404338500      4.50382170472914      0.65061676936374
  H   4.05172906115931      4.91102035667706      0.89431180775563
  H   2.97793354162221      5.43767052769302     -0.41512623850803
