22
Coordinates from ORCA-job 12428optt
  Br  1.04811016335594     -0.10637878874278      0.23273108133361
  C   2.92425015048975     -0.04430635931687      0.06939827378214
  C   3.59400155761019      1.16843207851193      0.07481086102939
  N   2.94188774683551      2.36376029034701      0.25313435006528
  C   3.51229453265413      3.62074946759301     -0.18944043759026
  C   4.99897527299223      3.61194096964422     -0.05180961367230
  C   5.70004485251604      2.47565850101763      0.01484771509473
  C   7.12885268363364      2.50319372706248      0.10742733886136
  C   8.32552220737253      2.50569423882539      0.18075966490359
  C   5.01983572779156      1.16724676961994     -0.02690604120003
  C   5.73081235790170     -0.00562431357514     -0.13592728676716
  C   5.03813714300894     -1.21796969397001     -0.14286885173352
  C   3.64532006437941     -1.24051491479800     -0.03631431443764
  N   3.10955104828366     -2.51020382051516     -0.04566565207198
  N   3.97100327530797     -3.42330155160449     -0.14835067670290
  S   5.55569823342439     -2.84230760846068     -0.24969796957997
  H   1.93552605695982      2.30840647619123      0.23057575946596
  H   3.09187488049307      4.42363796189827      0.41920464599419
  H   3.25335136755290      3.84928439531541     -1.23533461280387
  H   5.51242035183875      4.56465549742018     -0.04844229169709
  H   9.38718145670051      2.51943328751997      0.25089976356206
  H   6.80934886889735      0.03051339001646     -0.20503170583563
