28
Coordinates from ORCA-job 12427optt
  Br  0.60911945139636     -0.67387763678979      0.59264741049089
  C   2.49546664406009     -0.47856711634992      0.65569941974198
  C   3.32326419561552     -1.31375440202410     -0.11884891373556
  N   2.76970652370224     -2.27852169448077     -0.90307494900768
  C   3.39864221390048     -3.48629238034896     -1.40461584181895
  C   4.54970754754275     -3.99081205432021     -0.52113491656813
  C   4.74646977585310     -5.42518491334720     -0.72508533680253
  C   4.93340155442449     -6.58943804270975     -0.93913127304322
  C   5.88030436562614     -3.25848717629040     -0.79263570635409
  N   6.39256600568786     -3.52182664223154     -2.13463771016561
  C   6.03362912458721     -2.43789236008221     -2.91134265404390
  N   5.63626919514044     -1.39746326893212     -2.30190980387447
  C   5.75691929175396     -1.71643283145447     -0.86223654090581
  C   4.70698279244410     -1.05467555711303     -0.01144077614152
  C   5.11879371204233     -0.05982080710787      0.86494897244172
  N   4.32751732728994      0.69893670926134      1.61409574290708
  C   3.02400454549025      0.48809507720689      1.48686117565210
  H   1.76393348001619     -2.30668566449295     -0.87909069716145
  H   3.75383704897459     -3.35606365792691     -2.42929102789505
  H   2.62451329672676     -4.25161867641877     -1.43112390208934
  H   4.28032466485078     -3.82126643114947      0.52604413083975
  H   5.08876190616555     -7.62893224512009     -1.10595837000019
  H   6.60037622528797     -3.56546334007172     -0.03538193784806
  H   6.32787586989111     -4.45855238043442     -2.50769645082301
  H   6.12250204644331     -2.50310006560664     -3.99013825650561
  H   6.71994333990923     -1.30661752392124     -0.54229967973346
  H   6.18278825433241      0.14027125495947      0.94909512190838
  H   2.35937960084474      1.10704382729688      2.07868277053574
