25
Coordinates from ORCA-job 12429optt
  Br  1.00770525070098      0.16818014090394     -0.09158757075119
  C   2.88425685167851      0.04664526099961     -0.02050521184298
  C   3.61200583394488     -1.10921587189154     -0.01229052922311
  N   3.26262597377836     -2.43053877780176     -0.03124269285636
  C   1.96604746684838     -2.97386928777354      0.34050044830825
  C   1.72435417497214     -2.90705733260218      1.78670685343791
  C   1.56024359407250     -2.84440845096188      2.97061890911846
  C   4.41754445486116     -3.27446174534596      0.30691123437519
  C   5.63597316054932     -2.41959366786343     -0.04850022728108
  C   5.05831156809275     -1.03852359515456     -0.00069146326390
  C   5.62914822081321      0.16205705438917      0.02716106678323
  O   6.96794756538289      0.41391203350107      0.10701730369070
  C   7.80317769438656     -0.09075499606622     -0.83809537785132
  O   7.48049072012359     -0.75291982819044     -1.76767507234412
  O   4.94879257599983      1.30297455026751      0.04494825090318
  C   3.54720276968508      1.33578735834307      0.01573554489818
  O   3.04037210917837      2.41539292269087      0.02980894031021
  H   1.95391386720620     -4.01742258596317      0.02026109419677
  H   1.17382136665429     -2.45972687964563     -0.19483420254077
  H   1.40410607109406     -2.78273503183703      4.02148159954288
  H   4.37037566845161     -4.20409425578929     -0.25940818633827
  H   4.39077346966952     -3.51423296867054      1.37546662374950
  H   5.99511109234593     -2.63948755400180     -1.05468297108754
  H   6.46251187819283     -2.56384974242788      0.64615687696242
  H   8.82318660131693      0.21894325089169     -0.59226124089626
