25
Coordinates from ORCA-job 12434optt
  Br  0.85749986614589     -0.24659322996725     -0.38598805868070
  C   2.71024290997977     -0.03499745880338     -0.26844377568269
  C   3.28176269629574      1.20513326608566     -0.25139293738758
  N   2.75612519752121      2.46328602570099     -0.28748308948562
  C   3.80549981033024      3.25988628527710     -0.22792080631253
  C   5.07650944212749      2.59442933737084     -0.15381645059404
  C   6.42892512950421      3.24428389560736     -0.10621145939976
  C   7.50519547789848      2.36136818262502      0.34383559159333
  C   8.40319216500940      1.65479768687188      0.70281992988068
  C   4.71575615250907      1.28064249425823     -0.16895347996576
  O   5.48168334629278      0.16294934772156     -0.11651741849544
  C   4.88303961220603     -1.01766732101586     -0.11315238658304
  O   5.71969766311217     -2.04517416743342     -0.02880092304574
  C   7.10685055362380     -1.76264503836841      0.13703231835256
  C   7.82263082671138     -3.08193429956528      0.29946285515270
  O   9.00708977052107     -3.13544144146935      0.45068659807227
  C   3.53207081482438     -1.18451625412428     -0.19015462124378
  H   3.67811190124724      4.33596159206551     -0.23200966546939
  H   6.39114744209628      4.11100666989375      0.55874535905889
  H   6.69596684820292      3.63084782706691     -1.09444976973814
  H   9.21375894352347      1.04122923601487      1.01828132468493
  H   7.27515856971909     -1.14166480593233      1.01967071125407
  H   7.50600735091228     -1.23036553646859     -0.72905276194194
  H   7.18610830729621     -3.98523950861396      0.27446609720380
  H   3.12596920238919     -2.18258278479760     -0.18365318122710
