25
Coordinates from ORCA-job 12430optt
  Br  0.87710511562068     -0.61636982917086      0.10393625970382
  C   2.72872178335036     -0.26325281171028      0.08265604630784
  C   3.60834051090980     -1.30628512539470      0.07300678943173
  N   3.29841015678024     -2.62686610012366      0.08961787283281
  C   4.43995873699793     -3.45518869100437     -0.28997702563988
  C   4.43905717994629     -3.74254999211726     -1.79984874344673
  C   3.20135290237739     -4.39327853554790     -2.21472752813307
  C   2.16221570896285     -4.91619143304641     -2.49990584508408
  C   5.63603888829444     -2.57607624442258      0.10713291899343
  C   5.04998537006194     -1.18995447464097      0.04438319381481
  C   5.66303169189532     -0.00966157789681     -0.02731828444683
  O   7.04072395478045      0.11003222598659     -0.05999643227245
  C   7.69389065764311     -0.31425968631612     -1.17144594468920
  O   7.19476721312229     -0.85251012128991     -2.10420402853198
  S   4.86949061583998      1.52569302802565     -0.04449933410302
  C   3.09792433598832      1.12493075987791      0.05598643572480
  O   2.35738869972403      2.07171727008788      0.07250725176889
  H   2.35839152640941     -2.92450649565881     -0.13383196142053
  H   4.41340011787983     -4.39419523341921      0.26119222691847
  H   5.29511870636590     -4.37403855110657     -2.04740718619149
  H   4.56416605341047     -2.79759725417751     -2.33829270338848
  H   1.24550826352239     -5.38239332586017     -2.77290266184360
  H   6.48035830858966     -2.71678345900347     -0.56493330081568
  H   5.95722721829018     -2.80020148534115      1.12644971398706
  H   8.75742628323664     -0.08321285672926     -1.05557772947664
