25
Coordinates from ORCA-job 12433optt
  Br  1.19626482831598      0.29587891203123      0.43834061276628
  C   3.05907233553492      0.19311235646273      0.24465393122670
  C   3.69320212975165     -0.95759062498792     -0.08127352357718
  N   5.06061837726424     -0.96646880110247     -0.20225653892426
  C   5.60743901900465     -2.26350434738069     -0.59680038463964
  C   4.43323501833467     -3.22990641802981     -0.44759344149691
  C   4.30187374951708     -4.26709177503811     -1.56084849393006
  C   5.48733284847236     -5.11684937310080     -1.63013273290755
  C   6.48240310690276     -5.78295006533061     -1.65520852139627
  C   3.19919828953021     -2.33619155468573     -0.34513879775731
  O   2.06476105023291     -2.69730394274408     -0.46611286941938
  C   5.84766256492406      0.16344446853401     -0.07637519783153
  N   7.10254583957647      0.24862116584778     -0.26889916025678
  C   5.04426523784660      1.34266045802825      0.33463179624052
  N   3.75732999321655      1.33510979315360      0.47117240925181
  C   5.75490851341944      2.55567731100893      0.58505586743764
  C   6.35379226986102      3.57088762068312      0.79495724611278
  H   6.45239935409508     -2.51849395377851      0.04293182496916
  H   5.96637964649663     -2.21440623176130     -1.62991294000664
  H   4.50977027505606     -3.74888013927757      0.51259596074928
  H   4.15700880872116     -3.76148901226113     -2.51929144001275
  H   3.41003456458562     -4.86827030891278     -1.37929858684773
  H   7.35860818250881     -6.38620934615966     -1.68554357916789
  H   7.52321884462707     -0.62976101602536     -0.55876842806102
  H   6.88467515220392      4.47397482482692      0.98111498747874
