30
Coordinates from ORCA-job 12441optt
  Br  0.93112018307933      0.13997748516799      0.20321732654901
  C   2.78878529818098      0.06663552729709     -0.03657187599142
  C   3.48530492857364     -1.08001342962153      0.00291718042729
  N   3.09776462255374     -2.39809222574453      0.26625584367840
  C   4.14737236964216     -3.26640085481314     -0.28786306292836
  C   5.43561031643335     -2.43217875703473     -0.13025680000603
  C   6.13495380573476     -2.66336463146922      1.21579090782039
  C   6.85808671820635     -4.00281438582056      1.27267203148213
  C   7.59382417873327     -4.19505074906603      2.60183923887123
  C   8.29306272554883     -5.47505141216564      2.66917107486642
  C   8.85617193620920     -6.53199897184084      2.69212955995668
  C   4.90045057779237     -1.02493437239289     -0.22742101307552
  C   5.52588848893886      0.14178542570798     -0.45781231569886
  Br  7.38361209057796      0.20235075022148     -0.76448386730252
  C   4.79499122794570      1.41568349314860     -0.49499332562192
  N   5.22978273640564      2.59606146447323     -0.70079212328970
  N   3.43083452749006      1.25546857883589     -0.27303573762153
  H   2.14934543108189     -2.63161680592990      0.00768229323869
  H   3.96950232450427     -3.48523829878973     -1.34580597034456
  H   4.18954583103298     -4.20569362555136      0.26151555340921
  H   6.14170733706702     -2.63349687198002     -0.93828648612723
  H   5.39046768863496     -2.59565002050900      2.01531096527923
  H   6.85645715425688     -1.85921730753610      1.38115230257805
  H   7.58124443490591     -4.06508993227259      0.45568285003290
  H   6.15721894096023     -4.82902218831558      1.13513270113157
  H   6.88409551348520     -4.12983823860292      3.43065946712020
  H   8.31548836032399     -3.38620767240841      2.74307235461772
  H   9.36153084746919     -7.46744144996089      2.72012544193126
  H   6.23209691298212      2.59835616846026     -0.85366108008529
  H   2.89768249124909      2.11209330851313     -0.30734343489742
