25
Coordinates from ORCA-job 12444optt
  Br  7.13004421459700      1.02242932734609      0.65833593873147
  C   6.59865714202927     -0.79583860209548      0.59842426353601
  C   6.41164513025834     -1.55657755520158     -0.57471815813263
  N   5.31957268451509     -2.44758787496298     -0.37991394690937
  C   5.35642240707220     -3.33288187024161      0.83056311778760
  C   6.44055940583343     -2.75850295570328      1.69869982782134
  C   7.64565701652599     -3.55679489430512      1.76196732764876
  C   8.72705912346222     -2.95108452393322      1.21768049331054
  C   9.78937293164165     -3.59765669804549      0.49391579270861
  C   10.33661403851635     -2.98308926653255     -0.57705131061689
  C   9.99477346562507     -1.63926753301776     -1.10062223537769
  C   8.78537143747492     -1.18534861877294     -1.43116684334991
  C   7.51992296980578     -2.00761411425996     -1.40391067718191
  O   7.48744883667531     -3.05429496926539     -2.02435425917683
  C   11.38987196597822     -3.66106641025454     -1.28440475581953
  N   12.24550217789198     -4.18277853377593     -1.84396260903995
  N   6.56665732807678     -1.45329566594074      1.74138841333117
  H   4.48870000864434     -1.87887952683153     -0.28265407826015
  H   5.56854301348131     -4.37099421642867      0.57958029551377
  H   4.37480380265995     -3.26723801945655      1.29740682637626
  H   7.55750669467749     -4.63560964126637      1.79070667968177
  H   8.72643923704233     -1.87126767659418      1.15531039971250
  H   10.08698335027539     -4.60999050252573      0.73846751130851
  H   10.85143985435531     -0.99519916559651     -1.27211987881605
  H   8.69943176288422     -0.16757049233796     -1.79556813478738
