24
Coordinates from ORCA-job 12442optt
  Br  3.25885827365326     -1.52953443262926      2.60838590472130
  C   4.46084609135498     -0.20944776280942      2.04433891458304
  C   4.03967981116504      0.85598469427903      1.30270987566469
  N   2.75208110830737      0.86128745189851      0.83552836656530
  C   1.97172563329646      1.82214118914011      0.50750074301346
  C   0.58001325413435      1.39914630940699      0.06224166757221
  C   0.12633199560836      2.08036944480945     -1.14659621545771
  C   -0.23298967435108      2.65065731130815     -2.13582159206478
  C   2.21989978139930      3.24196361074291      0.52893478440112
  C   3.44490565314581      3.80407782256230      0.50908121762413
  C   4.71846485816569      3.16522863874968      0.56486119911587
  C   5.01766757809368      1.88978349021367      0.92523367934518
  N   6.34590920938194      1.53564308333574      1.00336913413771
  C   6.87923214795014      0.48899681018877      1.72912254137069
  O   8.06188362810159      0.31407155808832      1.80411746890220
  C   5.85499959978100     -0.41255871242627      2.42879926659049
  O   6.24986768259050     -1.24680937168533      3.19651241360739
  H   -0.11350803127456      1.62393599636757      0.88021896898683
  H   0.58150846617195      0.31909864819220     -0.07493776535219
  H   -0.55668303976508      3.14653674964743     -3.01980049407962
  H   1.35290508873796      3.88383532388223      0.43580480906522
  H   3.48623802540588      4.88342805752832      0.41476160360869
  H   5.56967813273224      3.81258643380426      0.38440981871608
  H   7.03648472621317      2.18157765540462      0.64322368936268
