24
Coordinates from ORCA-job 12453optt
  Br  2.15436021734841     -3.50148072986784     -0.93123826362704
  C   3.52464854339211     -2.28379941942910     -0.52448795300735
  C   4.47104802974168     -1.97562272967991     -1.44398253859683
  N   5.46515433271692     -1.08436058925018     -1.09734739388903
  C   5.86089381793855     -1.00022745298513      0.19840578425184
  C   5.11728783170041     -1.58072492991053      1.19166804459441
  C   5.88297094176277     -2.54756726284029      1.95645614074628
  C   5.37330284615747     -3.80440299241084      2.17127134672054
  C   5.91461211022232     -4.68455900985637      1.17652069532959
  C   5.11584788854488     -5.50495967436972      0.44146325074043
  C   5.14833319665936     -5.53626685486397     -1.01777334974988
  O   4.70828346881626     -6.33360220873195     -1.78321588947377
  O   5.60567771261766     -4.26466333837583     -1.49736893412869
  C   5.09734492446353     -3.76071792609539     -2.64403916032856
  N   4.61202240907424     -2.58771529430371     -2.69485837711720
  C   3.70713072905667     -1.93294664241103      0.88946736463201
  O   2.88646864502047     -2.13676259461977      1.75582342897715
  H   6.09244174299641     -0.79160894916524     -1.83085920456091
  H   6.87402920876006     -0.65372993897872      0.35694486446429
  H   6.95588208716420     -2.47004759676927      1.80509257269405
  H   4.32368111759598     -3.92424009110298      2.41005546055082
  H   6.87663304043118     -4.40575872858497      0.75829632988955
  H   4.17798948047735     -5.87464492499464      0.83970995424450
  H   5.14195567734106     -4.39059012040257     -3.52600417335621
