24
Coordinates from ORCA-job 12464optt
  Br  1.25187235579310     -0.27399134815076      0.34877966458922
  C   3.10603485274496     -0.05949870533007      0.15415482136354
  C   3.74628083969024      1.14168757712149      0.25142294071619
  N   5.11466204942290      1.17947988151731      0.04936020553656
  C   5.86544146966660      2.44137538050295      0.12606038188579
  C   6.18821273661692      2.75859777561788      1.59619235042939
  C   7.03910592394070      3.93691286350987      1.70758522068187
  C   7.73891390013322      4.90675425516075      1.75669809929214
  C   5.10266895670996      3.55061958495194     -0.58279437526683
  C   3.73466573988633      3.73442249683467      0.01184688144406
  O   3.14888485713879      4.77126071896097      0.08304963195434
  C   3.05907329949380      2.44231099023049      0.54874176182646
  O   2.03705307278032      2.51460446841542      1.16334373488509
  C   5.86803950638717      0.02754800915272     -0.14379056322040
  O   7.08058923221679      0.04170093305330     -0.20600359758276
  C   5.04965396965774     -1.17744848340851     -0.27380418870550
  N   3.77288118279269     -1.20860115023278     -0.13754958594638
  H   6.80401313270327      2.25002254586597     -0.38851393160734
  H   6.69498897538956      1.89367224005115      2.02914381758398
  H   5.26517210838971      2.91579713362297      2.16524554355454
  H   8.36325595636388      5.76669445680195      1.81386801060427
  H   4.97520184890818      3.28554583629051     -1.63726002073837
  H   5.65107257152438      4.49009603961515     -0.53186553058542
  H   5.58126146164873     -2.09656350015539     -0.49591127269443
