25
Coordinates from ORCA-job 12477optt
  Br  1.14326193256386     -0.15925732771182     -0.39994437412972
  C   2.99042304254172     -0.04448545051591     -0.20096981145307
  C   3.69466115644546      1.11231323168280     -0.16186235870389
  N   3.30432345821608      2.41079819245187     -0.24434775798307
  C   4.43913462162066      3.08729457737916     -0.13694508602532
  C   5.61400901168525      2.29379764811645      0.02098504621802
  C   7.03135377086356      2.74331803830987      0.16224784722114
  C   7.88754900603833      2.25402037302237     -1.01877791529704
  C   9.29791960613348      2.60327797908673     -0.85947143393278
  N   10.39920899537520      2.88253361799634     -0.70912811452673
  C   5.14152879469124      1.00100916623596      0.00213873879257
  N   5.78050733638837     -0.19619751982186      0.10631743565671
  C   5.02514872219151     -1.24069439217604      0.05807645291218
  N   5.63355827490957     -2.49196754898717      0.16915908771576
  C   5.03561095773063     -3.71453245614939      0.12804823974997
  O   3.84976246165741     -3.90122826914079     -0.02204019798682
  N   3.67027555216065     -1.22227756012725     -0.08910551736915
  H   4.42747378352351      4.17086759301741     -0.16738174503815
  H   7.46467842280372      2.35621024891523      1.08703796905188
  H   7.07822366826481      3.83149983755648      0.21963486943315
  H   7.52301276803855      2.68136502687001     -1.95393139545289
  H   7.80822596194132      1.16893658923635     -1.09992719470500
  H   6.63352769680414     -2.43881592802242      0.29705402616555
  H   5.75461275895231     -4.53484241605625      0.24858900807797
  H   3.19100823845856     -2.12194325116812     -0.11945581839128
