24
Coordinates from ORCA-job 12473optt
  Br  1.07823512045901     -0.11275964479294     -0.09826925249336
  C   2.92790049829650      0.02909558354654     -0.01391490264049
  C   3.61145066855740      1.18097855401922     -0.15300456300416
  N   3.15637906677041      2.44844852610311     -0.41457232471797
  C   4.21127612738341      3.41817047092458     -0.11269224695969
  C   4.11018306649180      3.95827444680215      1.32261333325561
  C   5.14355702094604      4.95603058746374      1.57603080141889
  C   6.01461317414904      5.76369500948866      1.72585500103108
  C   5.47827211925788      2.57903120878775     -0.32713695261438
  N   4.98965688538977      1.22376397195487     -0.07478234637198
  C   5.82996806264537      0.13683416249614      0.09489747759281
  O   7.02862822908592      0.24311877673835      0.10187725814197
  C   5.06313686099366     -1.10658607609495      0.25785460190016
  N   5.45802959237916     -2.34554227391637      0.46787085104575
  N   4.34913218216336     -3.07270281543827      0.53121933216485
  N   3.28621403132009     -2.34906855514441      0.37031561037595
  N   3.71237264020565     -1.10474277977174      0.19635392454730
  H   2.19768727707956      2.65745647467608     -0.17718435924875
  H   4.16846006449431      4.24961167613264     -0.81392255378923
  H   4.20604269092217      3.12931276286322      2.03029511354124
  H   3.12383976436112      4.40352948593238      1.47353142048793
  H   6.78237107714694      6.48592676171506      1.87384557270587
  H   6.28015307703405      2.83005234168528      0.36406296382278
  H   5.85444070246731      2.64907134382889     -1.34814376019214
