21
Coordinates from ORCA-job 12471optt
  Br  1.14528986588824      0.00640926939800     -0.07420231316089
  C   3.03019156902800     -0.01958588769954     -0.06532475231775
  C   3.69110756469773     -1.25376016051704     -0.06076508189204
  N   2.98936401624629     -2.40571396488455     -0.05959428535194
  C   3.61567835705593     -3.54181146462827     -0.05563105342164
  C   5.02233105728691     -3.64528464160376     -0.05382817185544
  C   5.75469189501018     -2.49535197187917     -0.05492860303213
  C   7.17553756371550     -2.56858620765771     -0.05504077021150
  C   8.35104146618360     -2.79244399247067     -0.05519042643002
  N   5.09737706072476     -1.27941106510682     -0.05698950051349
  C   5.75898458992097     -0.04800900161672     -0.05573263793183
  N   7.02774452984467      0.18012548521195     -0.05126216994932
  N   7.11362354756800      1.56171390879924     -0.05148677834269
  C   5.92144095431182      2.25408535328477     -0.05583601918954
  O   5.77146818876122      3.45400773303421     -0.05639445650976
  C   4.94817539814432      1.13694127391928     -0.05908966665415
  N   3.65042753318738      1.15495674513070     -0.06416384557381
  H   3.00367212434213     -4.43789524617173     -0.05425441773953
  H   5.52922537401888     -4.59722343906481     -0.05200440258304
  H   9.40522997564653     -2.94207717555978     -0.05572452345247
  H   8.02539736841690      1.98491445008240     -0.04855612388701
