23
Coordinates from ORCA-job 12489optt
  Br  0.97700812678432     -0.04303139815341     -0.12386145886140
  C   2.86609468345877      0.02819931234479     -0.07750373715892
  C   3.56349272776672     -1.14913660214983     -0.06590115999772
  N   2.93267296749220     -2.35434506410108     -0.06875240312488
  C   3.60705469151938     -3.58584207749435     -0.37317280078289
  C   4.90507958117256     -3.68634966564105      0.45865721882435
  C   4.62692699126300     -3.62650852665124      1.89481331290066
  C   4.39540897421162     -3.53340850560066      3.06363587666386
  C   5.60279713376893     -4.92676436693421      0.10484466352573
  N   6.08423205143416     -5.91598198073197     -0.20980248220985
  C   5.77435885554804     -2.45301379916370      0.09184691586380
  O   6.96027006817377     -2.54593558093309     -0.04822481724928
  C   5.02276701202081     -1.17875208465560     -0.03233301587745
  C   5.77159628296368     -0.05804652369965     -0.06982556982451
  S   5.19177531670183      1.53094352780095     -0.11872542374174
  C   3.41208760036648      1.36825470831818     -0.06099513390857
  N   2.69512650697886      2.41427262133058     -0.03570433860749
  H   1.92605937077492     -2.34027877175527     -0.10987345086223
  H   3.88371883508097     -3.66159999293315     -1.43083798010212
  H   2.95319960773164     -4.41874812921352     -0.12520023092133
  H   4.19368617964933     -3.46093781554268      4.10639444564740
  H   6.85176362455188     -0.15272013355676     -0.05024779000442
  H   3.23582281058605      3.27573084911675     -0.03923064019101
