21
Coordinates from ORCA-job 12486optt
  Br  0.92391301079559     -0.22328431178106      0.25486794385233
  C   2.76750239393369     -0.15890417949461     -0.02284051286818
  C   3.56926131679375     -1.23752070810861      0.12875369772633
  N   3.20464644028488     -2.50346309409356      0.49150328385140
  C   4.32222279345436     -3.19810164027817      0.45914296551255
  C   5.47834949738217     -2.44054291273108      0.07818354373988
  C   6.89731353142893     -2.90323583983763     -0.09006049008499
  C   7.83395563001379     -2.21195870188690      0.92770894569684
  C   9.23889697322175     -2.52468442986162      0.67805348024107
  N   10.33525624991728     -2.76796946673817      0.45359422328989
  C   6.98013833526453     -4.36177211063777      0.04171231333454
  N   7.01537650300206     -5.49875124477595      0.17309147703024
  C   5.01168719700553     -1.16994796284549     -0.13151391090573
  N   5.70613106232897     -0.06069787012902     -0.51135470317781
  C   5.08530070211088      1.04420463248811     -0.68395228438202
  S   3.38946285829729      1.36749905290494     -0.50141406924553
  H   4.32640819257702     -4.25458105579034      0.69948987281787
  H   7.24497105721816     -2.64427306646148     -1.09384406959988
  H   7.56921192857971     -2.51240854876469      1.94154663432447
  H   7.69280364557094     -1.13494428137792      0.83754181582074
  H   5.63519068081863      1.93133774020106     -0.98321015697401
