26
Coordinates from ORCA-job 12487optt
  Br  4.70644425902131      1.24399286217982     -3.67554332321721
  C   5.17383451344290      1.03017153691530     -1.86589956367609
  C   6.10525097564529      1.82609546603307     -1.26150038742358
  N   6.34917616792635      1.55485808995948      0.05331022931840
  C   6.29812127248522      0.19694756106090      0.40094572666102
  C   7.37354533273586     -0.39815685891975      0.96545168194132
  C   8.70423388120230      0.20489073760036      0.82652247521452
  C   9.09330328245341      0.72853440181388     -0.34695792567554
  C   10.28987945591882      1.52749390879668     -0.65484413747450
  N   11.43659897873131      1.50478295745967     -0.11061938668473
  C   10.16674139259907      2.48459286138867     -1.82417486193050
  N   9.17016904714194      3.20466300571548     -2.13388371285465
  C   8.05339879376954      3.27108820345850     -1.28856807246926
  N   8.03649537972053      3.74856944925774     -0.11732168955599
  N   6.87277315749242      2.78836062709136     -1.87944011891835
  N   5.11993390794508     -0.43409875809799      0.04339890172846
  C   4.59592468581488     -0.01015742165437     -1.05939476695212
  H   7.01873943618718      2.15643956146420      0.51765338333070
  H   7.24906016846074     -1.35753582927635      1.44938103421284
  H   9.37020096304196      0.23294468910381      1.68656779808907
  H   8.41243345506426      0.62107218874385     -1.18660445456893
  H   11.46808288498824      0.83107722360051      0.65660195788227
  H   11.05523712737817      2.54873013726275     -2.44966227695539
  H   8.97350675166913      4.00275862478617      0.18646458746318
  H   6.85822253657210      2.76010789956016     -2.89102099998720
  H   3.69469219259188     -0.50122312530390     -1.41486209749776
