27
Coordinates from ORCA-job 12490optt
  Br  1.22244562851969      0.21488005230928     -0.12572899524222
  C   3.07079070807474     -0.01825990593635      0.04806332458779
  C   3.63425400637716     -1.23651619545907      0.11624799075264
  N   2.94865802912526     -2.45518372098471      0.11587158137208
  C   3.74222633810079     -3.58587953908044     -0.34482261369334
  C   3.00020157421027     -4.89266881086503     -0.11061636500674
  C   1.67167477830403     -4.97136474165855     -0.85379321528760
  C   1.02449648971717     -6.34848986636683     -0.68264620378151
  C   -0.28543724474677     -6.41756103829285     -1.32739408656101
  N   -1.31033087834552     -6.43999541740845     -1.83847276019990
  C   5.03030644948889     -3.55901024581915      0.45186223840186
  O   5.75610696045317     -2.34261809317557      0.26461428152633
  C   5.07863859816066     -1.19801314955345      0.22147135661033
  N   5.77824052674104     -0.11872533560795      0.24700392263072
  C   5.17327038013905      1.10417954454282      0.19207987981181
  O   5.70017145818108      2.16688192419095      0.22040835181889
  O   3.75635152919002      1.11425551280817      0.09272113520678
  H   2.04036547393971     -2.37936010511060     -0.32373537906622
  H   3.99327283265047     -3.49411609051710     -1.41221475479947
  H   2.82749850910936     -5.01163321413994      0.96307229788563
  H   3.64535580657444     -5.71561882371044     -0.43237779880245
  H   1.81954146956309     -4.77282069067485     -1.91801752226260
  H   0.97646421876555     -4.21870912428477     -0.47681649738372
  H   0.89465432197332     -6.57802836812531      0.37695927542305
  H   1.66038312142720     -7.12702909202266     -1.10842592036378
  H   5.70698894588899     -4.34901769492054      0.13399940813733
  H   4.80840996841710     -3.67557777013659      1.51568706828531
