23
Coordinates from ORCA-job 12491optt
  Br  2.11218753293267      1.27992093430751     -3.18928906743232
  C   3.21241783551085      0.73265863077992     -1.76225964159904
  C   3.55066330520805      1.61988070795380     -0.77959235009483
  N   2.73612138706757      2.71075947137519     -0.44282205612891
  C   1.43422974051865      2.51379647426300     -0.00237260032757
  C   0.87313297470745      1.34497697644350      0.42309633358703
  C   1.61990378917015      0.12822302087601      0.64510941368529
  C   1.26826021217760     -1.16338869601959      0.50959940108890
  C   2.27475804792780     -2.23442048544783      0.49710636347282
  N   3.48099396099977     -2.15287731114518      0.06421091864520
  C   3.87150854977676     -0.97274636012772     -0.51249951886626
  O   4.69523676058357     -0.22685092997239      0.22086552355755
  C   4.58779162266361      1.19090969364702      0.14635783244711
  O   5.27972160755042      1.83762687289486      0.86066871351977
  N   3.40733018556491     -0.59621140749369     -1.66036940614400
  C   0.62075688292988      3.69163748860932     -0.08052932869888
  C   -0.02705260488929      4.69790014286650     -0.14085825217380
  H   3.02267432552647      3.65863981924739     -0.62656761396315
  H   -0.20130949199564      1.34482933800458      0.54416120125895
  H   2.63336846425107      0.29212770647053      0.97777973872801
  H   0.24454937140580     -1.46206012497408      0.31186445105825
  H   1.96427528067452     -3.21911364294222      0.84055572584267
  H   -0.61351974026267      5.58478168038355     -0.19021578146278
