24
Coordinates from ORCA-job 12494optt
  Br  0.97925461908153      0.11376349630719     -0.12896619207733
  C   2.84723096665751      0.13273485057115     -0.00891111384621
  C   3.52274510982129     -1.04506626773838     -0.04801769398185
  N   3.08493736850452     -2.32547099395591     -0.16339916492975
  C   4.17190428040976     -3.18064862391344     -0.17820199042624
  C   5.30296494456829     -2.46411616056274     -0.06685225588305
  C   6.70908161371077     -2.94312785450325     -0.02025885073184
  C   7.31009315132087     -2.88108313301393      1.39957742309312
  C   8.76912258117255     -2.91299075068959      1.34463418188489
  N   9.91131118156035     -2.91330997856960      1.25315317363838
  N   4.90017975640110     -1.10553154536109      0.02112566372018
  C   5.57888327491382      0.10198194301883      0.11757242238033
  N   4.98715304180446      1.23401432846305      0.16572767193905
  C   3.57624802779294      1.37542422934699      0.11624399399417
  O   3.06690506204429      2.46911576625400      0.17292125991541
  C   7.01674058442954      0.06617937180224      0.16607200537063
  C   8.21258917436822      0.08823946656010      0.21708437157295
  H   2.11096057319706     -2.56391822723363     -0.24539430859432
  H   4.05829622669769     -4.24614961153463     -0.27215571609745
  H   7.32823576040032     -2.36565504161520     -0.70385821518436
  H   6.71952433581215     -3.97499523605203     -0.37014374809320
  H   6.95247499617125     -3.71546383304059      2.00327710439647
  H   7.02129757502254     -1.95884342023104      1.90362099558766
  H   9.27786579413705      0.09291722569153      0.25914898235236
