28
Coordinates from ORCA-job 12506optt
  Br  1.18339399042932     -0.33283824489589     -0.75204121503199
  C   3.03906679738063     -0.16376491316591     -0.41798080114337
  C   3.68116972763420      1.03029048346548     -0.72700342099565
  N   3.00015708072361      2.12095835203857     -1.27698520565011
  C   3.09164881230172      3.24855137174158     -0.71048859683172
  C   2.36923402247321      4.45011960545004     -1.23791925481699
  C   1.17458756725117      4.78668598390326     -0.32752996878670
  C   0.49985357996315      6.00345609643922     -0.76538224134031
  C   -0.02577959007406      7.00672994335827     -1.15354271261295
  O   3.73581117953251      3.43558606348416      0.48178589991444
  C   5.00290799967191      4.10368548711903      0.44855309172207
  C   6.12884558164416      3.08941725263447      0.29421107261128
  N   5.84869250715867      2.16065208015980     -0.79976350087670
  C   5.05682301507770      1.05757604560056     -0.44532621606582
  N   5.66081753698048      0.05163044631979      0.17360523579468
  C   4.92458266791606     -1.01262328461275      0.45075903664835
  N   3.64108837736834     -1.18298292440075      0.15357262155507
  H   2.02752809745637      4.24334428457570     -2.24905589841905
  H   3.04041759674439      5.31121175571133     -1.26493417034563
  H   1.52194405156058      4.90965035184712      0.69999071945861
  H   0.47152391953144      3.95094758520280     -0.33398149044087
  H   -0.50153894113299      7.89603990009357     -1.49169739913524
  H   5.08893323510039      4.65928804769899      1.38129275936691
  H   5.01875780840670      4.81647014339414     -0.38189010143958
  H   6.24581538071873      2.49983181097197      1.20304200108346
  H   7.06842140849050      3.61429120773855      0.11266660707610
  H   5.44909416774825      2.64611253159881     -1.59397324287878
  H   5.41620242194283     -1.83231746347196      0.96101639158048
