23
Coordinates from ORCA-job 12508optt
  Br  2.21419652646538      0.86853482843349     -3.12018175645036
  C   3.38852996674496      0.51298120454826     -1.70121093844592
  C   3.72206958837196      1.39740531292373     -0.75276677422352
  N   2.99435782218286      2.57357832794918     -0.49584265300191
  C   1.80487086634244      2.36705282168934     -0.05631571063700
  C   1.20310628272223      1.00944590631879      0.17001795686613
  C   1.78741459683755      0.09157213861474      0.93718943088743
  C   1.46653354960517     -1.35290732352634      0.97765472203339
  C   2.26372583301497     -2.37803138703112      0.66756851444493
  O   3.55343631012327     -2.38325677026885      0.16030253902322
  C   4.02780214531878     -1.17093501465348     -0.23445412846096
  N   3.69101181802578     -0.83166123484931     -1.51377602349615
  N   4.63892354046832     -0.40052631473984      0.56258404127646
  C   4.78068321468351      0.95179962536205      0.20894715735530
  O   5.57786455939419      1.68870756013173      0.71539402769318
  C   0.93964277684484      3.49304648942129      0.16615542666318
  C   0.16115848347169      4.38395360370689      0.35339199115072
  H   0.32861479523824      0.77744975264766     -0.43206552762210
  H   2.62825254426270      0.39950836589054      1.54637109706521
  H   0.47600309641347     -1.65129297059763      1.30114815276016
  H   1.93016008361994     -3.39952857237138      0.77721828129284
  H   3.23829367505273     -1.51665975482967     -2.10033123689926
  H   -0.51865207520504      5.18676340522994      0.51600141072501
