25
Coordinates from ORCA-job 12503optt
  Br  1.41377166419650     -0.31490006430738      1.26014411383904
  C   3.07921189515558     -0.02036019711737      0.43165552225816
  C   3.69551803349490      1.18995071232036      0.22433870039988
  N   3.13590029344510      2.44763166215477      0.36401431371133
  C   1.68754033363485      2.69909485147057      0.29358065364238
  C   1.05952282368419      3.04059286214454      1.64758872664819
  C   -0.39334498065469      3.08482982593483      1.52491066038870
  C   -1.58132020910809      3.10852384635353      1.37519790634260
  C   3.90489323216613      3.62979318100088      0.38070660429540
  O   3.35847280131735      4.69576376788640      0.54808030075258
  C   5.34149046604453      3.52287352378439      0.12659797503622
  C   5.88797854293976      2.35052396171763     -0.18896520762317
  C   5.09701164980296      1.14687397644925     -0.16919168950467
  C   5.66616520776471     -0.03926121269966     -0.45163946020127
  O   5.02730344829508     -1.19443579092124     -0.39355774439992
  C   3.72584817942721     -1.28415712749478      0.09395797507219
  O   3.25958818550224     -2.37703428252911      0.18625812949744
  H   1.20966007558868      1.83809490839290     -0.15645709893964
  H   1.55655017936228      3.54936225539695     -0.37325450646272
  H   1.43688266407023      4.00701745409378      1.98209097871125
  H   1.33957705514422      2.29280712701380      2.38980615619788
  H   -2.63777020688699      3.13619044196253      1.25493746369541
  H   5.88947722859146      4.45304607082240      0.15058919429066
  H   6.93803694616440      2.26452589654175     -0.44309847101211
  H   6.70103449085737     -0.14134765037174     -0.75129119663583
