29
Coordinates from ORCA-job 12510optt
  Br  1.85360377140539     -0.05774453468640     -2.59398175132856
  C   3.09944582159417      0.17319321365724     -1.21812271053347
  C   3.47287455672919      1.36074979059584     -0.72191818144769
  N   2.72739638169402      2.52260525047372     -0.92308209834756
  C   1.44780434072474      2.47768145279341     -0.14998704421229
  C   1.53674568487393      1.79513491983680      1.25546564940284
  C   1.17597614503764      0.29162473597153      1.26789315744973
  C   1.88235116637043     -0.57986265267626      2.33638207402371
  C   2.36314911223467     -1.95255429718765      1.84481531277186
  O   3.74366403778133     -1.97424366852143      1.35902589587049
  C   4.02790331211243     -0.93213532437687      0.58842813661488
  O   3.42234007010580     -0.99858656622722     -0.62391455930416
  C   4.75036251032199      0.13002519732335      0.97262372638448
  C   4.57162331928058      1.39234405577287      0.27531536374957
  O   5.09654509684301      2.44143760730273      0.59291128457730
  C   0.95733470536978      3.84976283731089     -0.02937244776311
  C   0.57096241908839      4.97576315675617      0.09467353368014
  H   3.27754247729806      3.32651538268150     -0.63517611382750
  H   0.72831476356178      1.91800749726234     -0.75572318111605
  H   0.86359535528174      2.32902605684214      1.92593090546374
  H   2.54103379082716      1.96263536492205      1.65027825724551
  H   1.35203460739406     -0.14356924519299      0.28743385508601
  H   0.09674303568898      0.20250013655817      1.40776405242519
  H   1.19702704518814     -0.76930607025907      3.16391333153743
  H   2.73316378221221     -0.05012251058466      2.77074369637170
  H   1.72161140949841     -2.32998564685680      1.04574677208834
  H   2.38254557528304     -2.67492417768280      2.65613213448212
  H   5.24391840231608      0.12219277142910      1.93309277955085
  H   0.22538730388282      5.97683526676229      0.19570816910448
