31
Coordinates from ORCA-job 12519optt
  Br  1.00424911963885     -0.13128709128881      0.06631938820339
  C   2.90138776992721     -0.12872826660381      0.10958584329620
  C   3.59569106836289     -1.30740079775789      0.23832660286860
  N   3.01225633914302     -2.55111392977214      0.35856562690020
  C   3.28957452428725     -3.53783307149002     -0.70566942121223
  C   4.54193493413770     -4.36188578687486     -0.45833085747110
  C   5.80968336083202     -3.52117116235372     -0.40241771043149
  C   5.73224791972753     -2.43863184103899      0.66813626190320
  N   4.96042673265025     -1.25720346728663      0.26242188299113
  C   5.65860694638687     -0.06864103748123     -0.00348952662002
  C   4.80225424448729      1.10594104742963     -0.06336310054967
  N   3.51320406621513      1.05696438048895      0.00526726010378
  N   6.93128229636733     -0.10951613439295     -0.13161319922729
  C   7.63093141169579      1.12580536596897     -0.39381896353273
  C   9.11824275538652      0.80237548210593     -0.54364394614321
  C   9.90943576259123      1.98909702402955     -0.86046029291518
  N   10.51134884064085      2.93172945023270     -1.11064129440267
  H   2.01931133265432     -2.44974987182219      0.51399931192283
  H   3.35843738060294     -3.02901798504406     -1.67403465067644
  H   2.42185576814117     -4.19504796385646     -0.74442111831433
  H   4.62206160259836     -5.11048805591088     -1.24921171270243
  H   4.42335864240919     -4.89909505278747      0.48646431372482
  H   6.01370661565376     -3.05179554121730     -1.36818273765694
  H   6.66153419300047     -4.16409667282727     -0.17431896392105
  H   6.72257117452700     -2.06746623488984      0.90781853429710
  H   5.26062469568914     -2.83841704873880      1.56760070163068
  H   5.26418290734041      2.07868660538272     -0.16968073897323
  H   7.50800384219865      1.85488444036818      0.41623269502321
  H   7.27907018363168      1.60741951136635     -1.31409462037950
  H   9.25208828886266      0.06507862876756     -1.33601584731872
  H   9.49343528021239      0.36160507729483      0.38067027958311
