21
Coordinates from ORCA-job 12518optt
  Br  8.45385082118089      5.00326058957162      1.91874934345364
  C   7.75774962685352      3.87119050567693      0.62192245778167
  C   6.54972742504047      3.28738442963769      0.60183831004718
  N   6.26388986894729      2.23596118586863     -0.26043849465695
  C   4.97010650314070      1.71377250990070     -0.45564252601542
  C   3.85041291820865      2.27635554110732     -0.03447719783391
  C   3.81045739730920      3.56747186870922      0.73976019474422
  C   3.75467554958705      4.74370933037646     -0.11321576757723
  C   3.75201831761835      5.69786627367590     -0.83361463267552
  S   5.25503487440438      3.64540226289923      1.82102889199382
  O   5.41784260999805      4.97619251459529      2.30208521402064
  O   5.19787602184039      2.53029828096241      2.71263404494356
  N   7.22902844151744      1.40678468128254     -0.76591630955433
  N   8.40116468514340      1.76944527052241     -0.86122267996731
  S   8.82008621227781      3.41434165445727     -0.69508545888833
  O   8.36420165398209      4.02913011571638     -1.89762961732747
  O   10.17657494137425      3.47623202075813     -0.29178907626467
  H   2.98542958060172      3.55942698870428      1.45851467939998
  H   3.74842967130632      6.55714633873870     -1.46213231151882
  H   2.90981069625603      1.80182835864680     -0.27051234225253
  H   4.99263218341177      0.79479927819192     -1.02185672185223
