24
Coordinates from ORCA-job 12516optt
  Br  2.03791694279569     -0.47889500826648     -2.53611361412199
  C   2.83125235426354      0.32189944247905     -1.04493161565740
  C   3.50218421550910      1.48334206664457     -1.08771906344558
  N   3.29606137173558      2.44370492191857     -2.12007061018247
  C   2.05378663546673      3.01770195508513     -1.63443002108559
  C   1.99706868428035      3.99402626450570     -0.73133827279488
  C   0.87259099799592      4.29878143969135      0.16081570516285
  C   0.16808163061446      3.42992677241377      0.89899286785048
  C   0.25046847689433      1.94728907327221      0.82371129000170
  O   0.06683072337409      1.30427807759015     -0.17963557964529
  N   0.44406582100009      1.28964471876732      2.07078026754372
  C   1.47962860927941      0.60069369283773      2.28553302344584
  C   2.58892490454884      0.61007786861885      1.26190598104698
  N   2.48554486671297     -0.22251206426473      0.18556821300740
  N   3.41118242668872      1.58659360997721      1.33242610108180
  C   4.10063897403520      1.97518663266333      0.18100617188836
  O   4.99636031807135      2.78163937080549      0.19420121867584
  H   4.05114886067132      3.12325915092495     -2.08247573541114
  H   1.17785381898414      2.44237960587350     -1.90458636946463
  H   2.90791737676367      4.54549744514119     -0.50578847663588
  H   0.71307456591189      5.34922441814088      0.38428657196893
  H   -0.49979944011063      3.80701898327676      1.66476743373968
  H   1.59333957611692      0.07385591859678      3.22970737779848
  H   1.74387728839628     -0.90861435669330      0.17538713523277
