28
Coordinates from ORCA-job 12513optt
  Br  1.32400592807293      0.29733336538445     -0.23230498963886
  C   3.18202614966901      0.11736412992944     -0.02155586427315
  C   3.81160718011704     -1.03147041766445     -0.36668186974666
  N   3.16561397573782     -2.15996166148166     -0.81064592951374
  C   2.22053173814525     -2.89326442614341      0.02768342464752
  C   2.87935000762100     -4.07726525087263      0.72402267080201
  C   4.20078686134427     -3.68626475950830      1.38306475909082
  C   5.37803380952691     -3.55276481654764      0.38951833193613
  C   5.97683280485033     -2.17114519990176      0.22692832727084
  O   7.10774924947954     -1.96000568382809      0.57075693467561
  N   5.23103382474513     -1.08629674546514     -0.33215081637680
  C   5.91609594717143      0.14616395451425     -0.37590891418369
  C   5.31946518609707      1.28915846788822     -0.02918818912852
  C   3.91346432134058      1.31859623797798      0.38795440597696
  N   3.33091663166783      2.31035651823598      0.93409036893406
  C   7.25280358063354      0.16914185970439     -0.90293881444020
  N   8.28782820897930      0.28755417220084     -1.38162682843776
  H   3.71302143500162     -2.72730269471374     -1.43707371586743
  H   1.36820355761156     -3.20741991135621     -0.57614139532492
  H   1.84388246363999     -2.19798875563023      0.77473717708029
  H   3.05823482289275     -4.88886643977075      0.01156677636368
  H   2.18480837821769     -4.46758949889875      1.47054023753648
  H   4.47159146179711     -4.44242029364664      2.11831789394864
  H   4.06857104584598     -2.75474943016258      1.94208017340535
  H   5.10997976044507     -3.96213428022947     -0.58504547106753
  H   6.22727575882590     -4.13385657080087      0.74180759592143
  H   5.86397665131221      2.22096089740968     -0.10694629256976
  H   3.98330925921103      3.07813723337713      1.08614001297919
