23
Coordinates from ORCA-job 12524optt
  Br  1.07918933725459      0.22580363977199      0.03658629181307
  C   2.94623043349346      0.15651015146184      0.03939136586063
  C   3.67951790908420      1.32241181729044      0.04159136214704
  N   3.23005486502048      2.60602762017507      0.04259260466591
  C   4.32015961685026      3.35218467965233      0.04427162508107
  C   5.52665569519082      2.59320864908916      0.04440760432444
  C   6.92980120562305      3.11694509066693      0.04575196909265
  C   6.98441271111178      4.57886915940846      0.04636927555063
  N   7.02167584676982      5.72314006332012      0.04768288277867
  C   5.11763475000379      1.26904920871930      0.04273996752512
  C   5.78557953096336      0.00935009038800      0.04197385391444
  C   7.12514567172876     -0.22829262300907      0.04279790467509
  C   7.58840949843412     -1.57527855646380      0.04186748472983
  N   6.83115748573250     -2.61628060046746      0.04047732808634
  O   5.49056319328715     -2.39830750345369      0.03974991773901
  C   4.93365235808117     -1.17470186229094      0.04019545051884
  C   3.56835498842355     -1.11044729260697      0.03892543137856
  H   4.26342969368391      4.43303205852350      0.04546206735687
  H   7.47982641703317      2.76515010068435     -0.83367733683970
  H   7.47855622585357      2.76450352029863      0.92571266015941
  H   7.84925271066184      0.57338416390487      0.04419515939115
  H   8.64509448777184     -1.80861530756517      0.04233529978705
  H   2.98464536794280     -2.01864626749791      0.03759983026387
