24
Coordinates from ORCA-job 12532optt
  Br  5.06248597784269     -2.31355071645933     -3.56871021601909
  C   5.60451943536089     -1.23970111820025     -2.14507773874618
  C   6.87467629327001     -0.86449603725548     -1.91316475966794
  N   7.17620089013673     -0.06493984310688     -0.81560126349229
  C   6.50506916283247     -0.30960383213945      0.23195285714015
  C   7.20316472174787     -0.28960936005889      1.56306036816955
  C   8.18634188537368     -1.51491850959908      1.61069140437509
  C   9.67584610330061     -1.25836352827661      1.21733410293069
  N   10.26630089957098     -2.26782950109528      0.29657369438904
  C   9.64528537393220     -2.26165282059522     -0.91649166689521
  N   9.21037305387483     -1.18383906065587     -1.46122722403442
  C   8.13161448237536     -1.64861254554402     -2.16493491828228
  N   8.07838505685414     -2.94883504865108     -2.28035315939632
  O   9.12773684580426     -3.38255572778789     -1.46015239495661
  O   5.27515091929106     -0.85685028773545      0.20243421020354
  C   4.64403842047872     -1.05204090688144     -1.04402585643052
  O   3.46777824652626     -1.19038960477706     -1.05785790833515
  H   6.48295978153335     -0.35127890873538      2.37597628961644
  H   7.75875004593352      0.64404643990206      1.65010732272924
  H   7.78314047865712     -2.30363547437566      0.96863600059206
  H   8.15828111427576     -1.92055868609107      2.62238542913857
  H   10.30287733472559     -1.24306870890143      2.10689780067970
  H   9.77292161722050     -0.29748511641506      0.71908015124306
  H   10.41210185908127     -3.18823109656417      0.68546747504888
