30
Coordinates from ORCA-job 12533optt
  Br  1.55799397025808     -0.28070177718045     -2.08108340085846
  C   3.04803716113906     -0.09442256634421     -0.92544556411730
  C   3.49144934810903      1.12700550449263     -0.51679476840281
  N   2.81631009705467      2.30469046986081     -0.42215106707358
  C   1.41358482315964      2.41646055940631      0.04734527289718
  C   1.07816835202405      1.79665974044025      1.45086414798797
  C   1.61580851236393      0.37158093607553      1.46147282654659
  C   1.22158793973505     -0.84201110395854      2.28511222544683
  N   2.20252452006508     -1.88397165791757      1.91792119212478
  C   2.48239413016876     -2.20090400601071      0.50364424263480
  C   3.48818441601516     -1.21381118536147     -0.10883998123504
  N   4.65930846114599     -1.21417825707400      0.42719510722678
  N   5.40767102596789     -0.10631124257764      0.20684487774148
  C   4.89002945008627      1.14277700083527     -0.02016753598603
  O   5.52176474712174      2.16917108749953      0.14023985140627
  C   1.05215476907522      3.83350818253463      0.03599053891888
  C   0.75233738913372      4.99133900783063      0.07585645861505
  H   3.42028398310737      3.07149833681781     -0.14725848403725
  H   0.78169880496693      1.90196985923544     -0.67960363879734
  H   -0.00945052947713      1.84752648391355      1.54440791669519
  H   1.50808437260439      2.41189016036903      2.24289102887166
  H   2.69470065646814      0.44273418822929      1.58254901685622
  H   1.40304931313992      0.02163742056780      0.46272930680323
  H   0.18424679351637     -1.12875612952751      2.06149941501091
  H   1.30675161610663     -0.68852156435409      3.36212837402096
  H   2.01987942754090     -2.73924547921542      2.42166740465942
  H   1.58155127414631     -2.24473444542744     -0.11673137304089
  H   2.94265341577619     -3.18796200264518      0.49570059705810
  H   6.32669378887115     -0.13149749676091      0.62498423400971
  H   0.48354797060941      6.02057997624663      0.09903177801667
