32
Coordinates from ORCA-job 12531optt
  Br  1.27561464697970     -1.78250623349995     -1.11291522705206
  C   2.87735339924587     -1.82282834206098     -0.13662462756867
  C   2.99005637099958     -2.64895416162575      0.93542251937015
  N   4.11234389833905     -2.58229579738630      1.71484938953946
  C   5.29581799112951     -2.20416698494653      1.13658517092622
  C   5.33542869232892     -1.74682369504490     -0.13085828056920
  C   6.45447859758133     -2.16863340859474     -1.02860181619508
  C   6.02342659926701     -3.54434057649998     -1.63232539176017
  N   5.75969484497293     -4.54965452099289     -0.60905769844856
  C   4.54479612796738     -5.36508423362545     -0.56106328619065
  C   4.34934100092030     -5.92259328366283      0.86567887033653
  C   2.83585415981116     -6.01272895984456      1.08655714476315
  C   2.24242111303074     -4.82680875446862      0.32883249327684
  C   3.15429073110910     -4.74367578483998     -0.91123508953217
  O   2.15944495283080     -3.65235278135008      1.23569381644495
  C   4.08969643634799     -1.32151480118052     -0.79117009238634
  O   4.07926135372925     -0.77853525775158     -1.88182113645072
  H   4.11407217785127     -3.14602031461574      2.55031528587030
  H   6.18687386364487     -2.45209936992318      1.70039924864761
  H   7.38469921804687     -2.29831341821826     -0.46959071140636
  H   6.62282735186594     -1.46388136295533     -1.84058096946028
  H   6.81935167762480     -3.87944010488016     -2.30341016694914
  H   5.13726060384121     -3.37393928504971     -2.24930533384614
  H   5.99331218283482     -4.20828473266801      0.30745158325140
  H   4.69124543958734     -6.20241741836821     -1.24901256453320
  H   4.78297755339408     -5.21794745815212      1.58131222296857
  H   4.85501398940355     -6.87517135814807      1.01436230786073
  H   2.54147592607947     -6.01527851411674      2.13532044419555
  H   2.44650674613605     -6.92641191997012      0.63022142393704
  H   1.20478973901345     -4.98496992819420      0.04610554056888
  H   3.21156631858660     -3.77284521537655     -1.38814964544384
  H   2.67070629549898     -5.39348202198786     -1.64338542416483
