25
Coordinates from ORCA-job 12537optt
  Br  1.20788476200328      0.02156375208794     -0.19881404943326
  C   3.06424466270204     -0.10396815681539      0.02521953043918
  C   3.68556779192348     -1.32242691985446     -0.01154994278755
  N   3.05425296575117     -2.50390725328636     -0.19195933301126
  C   3.70095391324581     -3.80115269543825     -0.20080924669333
  C   5.00876772796670     -3.73029282105936      0.57181503957991
  C   5.76289005926234     -5.05674303447577      0.46823018011716
  C   7.02081258745531     -5.01870720249862      1.21140479453066
  N   8.00116424434586     -4.94792825100759      1.79929674945864
  C   5.83331426497413     -2.55517820152997      0.02932925405964
  C   6.22559905275370     -2.76253863521079     -1.37024501862916
  C   6.52512734501116     -2.94688970094212     -2.51368490456543
  N   5.04086367571800     -1.33692862300352      0.17867100470395
  N   5.77620010341237     -0.21972668097862      0.39662602585525
  N   5.24133046335717      0.89711941096789      0.44379195844316
  C   3.82036220337601      1.09057439783404      0.25227662057470
  O   3.38347451498185      2.21173030015012      0.30346211618375
  H   2.06432910231072     -2.44196207832247     -0.37155504766150
  H   3.90522785726905     -4.13068428351852     -1.22528606942711
  H   3.03026825260894     -4.52535439995988      0.26291007211354
  H   4.79874111513344     -3.51195903171544      1.62140271400426
  H   5.98622420736487     -5.28253621392440     -0.57684108686289
  H   5.14861029515042     -5.86718022094992      0.86403293456372
  H   6.72703290887303     -2.40590292582219      0.63764706037529
  H   6.80675592304904     -3.09202053072628     -3.53037135593128
