22
Coordinates from ORCA-job 12544optt
  Br  2.12219042066530     -1.30408345913910     -1.17542988213484
  C   3.62489026138901     -0.21021960148172     -0.97126623197187
  C   4.07524751916389      0.30281089162120      0.18040804885294
  N   5.17773513825677      1.23450924433532      0.02745377322707
  C   6.14118800639541      0.34804547404074     -0.55542468588287
  C   7.10974311079183     -0.12593707329878      0.22409258371668
  C   7.76624238014503     -1.42734410696017      0.12661852523027
  C   7.08424125004861     -2.59196563999950      0.19708382116893
  N   5.74643370892096     -2.85387273947765      0.06743563019334
  C   4.69123751321232     -2.44206203300012      0.62966574571556
  N   4.49940594506229     -1.54527738947726      1.67608533058659
  C   4.09336891926617     -0.35388011389401      1.51077887444732
  C   9.19440010347360     -1.47433444959882      0.21842751874398
  N   10.33967063731077     -1.48597578243345      0.29881765744736
  C   5.73200668346303     -0.16585390640737     -1.89680254412456
  O   6.39703801290166     -0.58442450923533     -2.77426127066284
  O   4.32959323316150     -0.00174204296711     -2.10988154977901
  H   4.90670501029263      1.98306148768210     -0.60399506665003
  H   7.31262386583723      0.44313775196869      1.12722922397961
  H   7.67334232521066     -3.50097944856053      0.27768899262311
  H   3.76243730604459     -2.92273834158540      0.32162843747204
  H   3.93725864898667      0.26212578786829      2.39264706780123
