21
Coordinates from ORCA-job 12551optt
  Br  2.78880120602153     -1.91812863017773      1.59765745382823
  C   3.59983233899860     -0.61229060623331      0.54301437223902
  C   2.90014689497666      0.37437715865215     -0.07428531779445
  N   1.50931933189306      0.35469603886009      0.01907038115194
  C   0.84095756507757      1.42068713712996      0.18427676859681
  C   -0.58992252475045      1.38319687666680      0.22632686580550
  C   -1.78686300617588      1.42323783554881      0.24506312340790
  C   1.45186272229820      2.78802468412415      0.36276775593000
  N   1.51005690542894      3.29031696607215      1.51604148766762
  C   1.93103381680140      3.45288840512078     -0.89192645097223
  N   1.61682039369429      4.61052945690581     -1.27269778575715
  S   2.95680995215084      2.48761906850309     -1.96682996202492
  C   3.68249568726623      1.29242404428041     -0.88111086328124
  C   5.02472190298590      1.15381745047272     -0.97216770916881
  C   5.73491730731710      0.10402354562777     -0.27488117486409
  O   6.90608243627074     -0.10996183569108     -0.27318182552289
  O   4.91667953227476     -0.74153084464976      0.48652045457024
  H   -2.85124869908117      1.43536556827578      0.26570539692202
  H   1.96943736391796      4.20433986032823      1.50418644749618
  H   0.95767945871373      5.05115477719430     -0.62885482409957
  H   5.62937941391996      1.81521304298887     -1.57469459413010
