24
Coordinates from ORCA-job 12558optt
  Br  3.89160534147020     -0.95711921704631      3.02381357213360
  C   4.51220343997565     -0.56356827990841      1.30151490947918
  C   5.61337042435697      0.18010957278051      1.08153131883959
  N   5.97895444232443      0.34250029724894     -0.24980440461633
  C   5.67795004806277     -0.68500525368406     -1.11837454596952
  C   6.86401625926406     -0.92323071850541     -2.00872117786561
  C   7.92395533999996     -1.31062292249278     -1.29873078705429
  C   9.32659394062138     -0.95975126394736     -1.54884700923196
  N   10.03622795026106     -0.46363154381872     -0.61844820087941
  C   9.51643997477845     -0.33302072480221      0.67848680776985
  O   9.89444677069763     -0.92190654285083      1.63920840229786
  O   8.52824772511639      0.62017658811632      0.72153627702968
  C   7.87761498880578      0.80797163570462      1.93485579848701
  C   6.55850250075734      0.67919640993760      2.08435582147410
  N   4.65594209289979     -1.42777569047518     -0.97919428648205
  C   3.81712870373324     -1.16541541583970      0.13893062538042
  N   2.59967805182861     -1.50237187842913      0.19004638095769
  H   6.85303695170305      0.81540856212222     -0.40474861579958
  H   6.90049584842605     -0.57429495943839     -3.03348048265916
  H   7.73430055475537     -1.62648024605153     -0.27511615799903
  H   9.75473072908678     -1.01685084665869     -2.54719794731512
  H   8.52884095807626      1.08119349971425      2.75340485441021
  H   6.16570312815434      0.87110362868275      3.07314051423077
  H   2.33001383484436     -1.94061469035850     -0.69016166661788
