24
Coordinates from ORCA-job 12553optt
  Br  3.69759435771543      1.64718870877776      2.74341300912300
  C   4.43843876943508      0.78032968579877      1.25014502703340
  C   5.27128302099630      1.40368152233055      0.38228680755403
  N   5.75446138255982      0.69875225340210     -0.69504921841573
  C   6.72590667110274      1.36672630734517     -1.50940327425523
  C   7.88178482193754      1.67938416968276     -0.91547246139169
  C   8.41304035638403      3.02882599609877     -0.99107671603915
  C   8.72635972039215      3.49089916938853      0.22602675509638
  N   8.20301771621243      4.70507296579355      0.72015742759349
  C   7.05951114503635      4.53836350885044      1.20948649885102
  O   6.49915024647353      3.25157148108710      1.32725767929773
  C   5.55720194662901      2.89176136251490      0.42287593400414
  N   5.00882725491154      3.74219853760621     -0.31724122105564
  C   5.26978610924221     -0.58672547675979     -1.04187665364344
  O   5.58336465487588     -1.07182092306447     -2.09510427110935
  N   4.47355252865401     -1.21382269875626     -0.09153229482558
  C   4.10281298875719     -0.57798693630364      0.96646483660077
  H   6.35674736527435      1.83013608261680     -2.41476105329036
  H   8.14448546090790      1.11339395701327     -0.02643670736700
  H   7.99403791850912      3.70597516837100     -1.72615292153558
  H   9.10976208571740      2.82210081224833      0.99055285572806
  H   6.45425067849704      5.33648407842158      1.62000865692961
  H   4.32757210360746      3.32431389465725     -0.94546837391543
  H   3.48205069617140     -1.11380362712069      1.68089967903256
