23
Coordinates from ORCA-job 12562optt
  Br  2.58576776605568     -1.70377972885212      1.63890274000705
  C   3.38107373719076     -0.37175877225516      0.57650345200824
  C   3.16875937073266      0.92093066494261      0.81630325883175
  N   2.34962816587442      1.56467572184074      1.74838300895911
  C   1.20838357803879      1.79086476898977      1.19072620774440
  C   0.92133026807119      3.19767917501255      0.99294563859370
  C   0.95291694378229      3.40997503220698     -0.33553612562579
  C   1.96935558173815      4.31249462589364     -0.95663847165270
  N   1.72278502196491      5.01441311257340     -1.97490718172319
  N   3.20615725014131      4.26556018734243     -0.27597094941268
  C   3.78897232920915      3.22722250517131      0.16347076622744
  C   4.85686251695085      3.37629007000485      1.11931876803354
  C   5.74560918528777      3.47332081115822      1.91455430021573
  N   3.60307380843984      1.85842951298175     -0.19368502036957
  N   3.17005687460674      1.62482632996145     -1.49442006242386
  C   3.36923810531369      0.44640274563612     -1.91094711335870
  S   4.12851738586595     -0.82923951451660     -0.94093069108349
  H   0.74215998200756      1.07401078067731      0.50379393983121
  H   1.37869342603998      3.88897289350076      1.68902614806807
  H   0.54745491450845      2.67309375054296     -1.02224805704006
  H   2.56422692417532      5.50434545067147     -2.27964426128627
  H   6.53184787086535      3.56672517876898      2.62575573642936
  H   3.08212899313919      0.20054469774658     -2.92575603097328
