25
Coordinates from ORCA-job 12565optt
  Br  1.05741755570946      0.18237285509131      0.19932318710070
  C   2.87935070512154     -0.09140191925855     -0.00405498388731
  C   3.48539069913861     -1.28451675437060      0.06564823247037
  N   2.98761296427604     -2.55580231306850      0.28908104156298
  C   4.04728072434622     -3.31158395851148      0.25985098099035
  C   5.30365425776791     -2.61526341386453      0.02349801338813
  C   6.66749749007775     -3.22121304087635      0.04066227470510
  C   7.55978763508217     -2.79505302043219     -1.10445187441348
  N   7.23624850548675     -2.11562858687739     -2.12325637066956
  N   8.91314578619330     -3.15177552118679     -1.01844451783244
  C   9.54012828071506     -3.98843850778734     -0.13207165411043
  O   9.02718364906661     -4.56093620112316      0.79286561233214
  C   4.91947660428478     -1.31462688037163     -0.10081235026715
  N   5.57863542771035     -0.13306041008587     -0.33575806211131
  C   4.92736082409269      1.08085974300903     -0.44565328662647
  N   5.40469009127454      2.21112767167818     -0.70530950765827
  O   3.56268264411578      1.03939492686234     -0.22989488662166
  H   3.96859244154659     -4.38243577609315      0.40910043183392
  H   6.60450085929188     -4.31105545744093      0.04517645576820
  H   7.19225239684067     -2.98132494027413      0.96913224696624
  H   6.23581859895635     -1.93128230893509     -2.13058758019562
  H   9.46287369812456     -2.80234353745001     -1.79146079577565
  H   10.61158791370696     -4.08421731866660     -0.36664072443293
  H   6.56104445950410     -0.14314165773523     -0.56863634791897
  H   6.40878578756920      2.18534632776871     -0.84730553459687
