27
Coordinates from ORCA-job 12569optt
  Br  1.45351545275836     -1.41154877386350      0.19069641138765
  C   2.77818772965782     -0.09609224783296      0.17751873853159
  C   2.54276682042131      1.16086286522467      0.62211892273856
  N   1.31740340380418      1.60187693273389      1.12773430007599
  C   0.21914240299821      1.88158026548642      0.19946538527263
  C   0.48217626530378      3.04926319240199     -0.75790829188110
  C   0.70178327830531      4.41000979091409     -0.05492934693245
  C   2.00269272829838      5.06920122990275     -0.42047811933140
  N   2.11173671374620      6.22095902727196     -0.88642007843867
  O   3.11313833557942      4.21002844565765     -0.32434107325722
  C   3.30466062607142      3.52916042508462      0.82901633837808
  O   3.08470522773750      3.98430142889632      1.90953596838516
  C   3.65588766755023      2.09740557258167      0.54833202501400
  N   4.83511943716568      1.79493445548113      0.15189461779828
  N   5.04477072423568      0.52841306781944     -0.19425938758043
  C   4.10457183815248     -0.49977235542387     -0.29331865359699
  N   4.35754254496994     -1.67295078483187     -0.71253095504455
  H   1.43751757925694      2.34043381680085      1.80739308736135
  H   -0.66261715901048      2.08554727605512      0.80913645339523
  H   0.01308383300419      0.97788266952306     -0.37264467319787
  H   -0.36531537282360      3.12890185770546     -1.43983890396347
  H   1.34695972255318      2.79952898512638     -1.37740144572754
  H   0.68340833552355      4.28852715341980      1.03173676239890
  H   -0.08197767808938      5.12094947706090     -0.30309923606135
  H   3.08511426499089      6.45924959430885     -1.07271409928412
  H   5.98625487380595      0.33747798154574     -0.50085508632125
  H   5.33177040403281     -1.79013134905061     -0.98183966011902
