26
Coordinates from ORCA-job 12572optt
  Br  0.92329991143143     -0.13961210621243     -0.41557110466959
  C   2.78762844027512     -0.09214847126358     -0.18133948637772
  C   3.47301134977360      1.11391704235339     -0.12860225259126
  N   2.97058608623097      2.38698097119691     -0.29499477668156
  C   3.96202972249906      3.34207853573655      0.21229571978888
  C   5.30279888231330      2.58931000743381      0.07299800182618
  C   6.31123759342277      2.93850296328145      1.15374743852293
  C   6.73669233873725      4.38129442043539      1.13437428661669
  O   6.33190675433427      5.19127877533321      0.34685564626689
  C   4.85732043945001      1.14360026977821      0.08401849284936
  C   5.58748589231560     -0.01938793932799      0.21747395181323
  C   4.90419076825105     -1.22879879443281      0.14989573158976
  C   3.53069567437681     -1.25289139595642     -0.04267877071616
  O   2.96593748499569     -2.48990808021839     -0.07580888796303
  C   3.87709270425695     -3.50467670172370      0.08918266203648
  N   3.59945006963983     -4.72314364987520      0.09509098366919
  S   5.51289731305705     -2.86585430473972      0.29278311474568
  H   1.99746639182647      2.53852805422547     -0.07536884569692
  H   3.77665573847991      3.57332256759131      1.26938071440476
  H   3.94867941345589      4.26855145702633     -0.35425651192706
  H   5.73894635956009      2.82877125098741     -0.90214436763592
  H   7.22033744196814      2.33278260641787      1.06848837634681
  H   5.90851413024505      2.72062565234487      2.15000391364287
  H   7.46930529962048      4.67241758668638      1.91135541853313
  H   6.65878403653614      0.00058013328192      0.37410426767979
  H   2.60304976294700     -4.88112085036024     -0.03928371607343
