22
Coordinates from ORCA-job 12570optt
  Br  1.37286873466644      0.27120980771856      1.58830570063869
  C   2.94092919969637      0.14115669842193      0.54382935160543
  C   3.58064876489422     -1.05291593067569      0.33894272636965
  N   2.93703700780945     -2.26059779699905      0.62030297246691
  C   1.55847400033774     -2.47921175324836      0.14248588096079
  C   1.48189415390094     -3.66468018642401     -0.71160837753582
  C   1.42205434622117     -4.62836555566953     -1.41703114334962
  C   3.56421792312280     -3.36223366634144      1.20898823070618
  N   2.99744396472940     -4.28682846698906      1.84847187164295
  S   5.29715177300505     -3.62475732309907      0.95687556765577
  C   5.76835220682313     -2.32664969063309     -0.14339737062294
  O   6.82281127538268     -2.41727685405384     -0.71166767717841
  C   4.92057577281930     -1.10352595995267     -0.20686271717587
  C   5.53389387320875     -0.02759185918350     -0.74285973230269
  S   4.91218952207853      1.54415149182503     -0.84492494641200
  C   3.37372281518789      1.44978878388412      0.06054215466903
  O   2.77236456412357      2.47809479310001      0.21136289549397
  H   1.27005302138876     -1.60519652220004     -0.43622379786780
  H   0.85368503655111     -2.55453423033122      0.97194097738419
  H   1.37490784263319     -5.49057378696072     -2.03936630427151
  H   1.99939716246105     -4.14292821065284      1.97961355925891
  H   6.52932703895840     -0.15753378153549     -1.15271982213580
