23
Coordinates from ORCA-job 12574optt
  Br  1.19501366978029      0.14113290668573      0.07665381581048
  C   3.03988226475804     -0.01219791515672     -0.02812009025559
  C   3.71674232207262     -1.17485064420160     -0.12743169787832
  N   3.21798445623265     -2.44647337320983     -0.15073900507901
  C   4.29378324577844     -3.19822310141480     -0.16958982237823
  C   5.54261063530730     -2.48400606663799     -0.16965973616891
  C   6.87990582546519     -3.13037976806115     -0.07023546282325
  C   7.66790436828367     -2.71969408755352      1.15281623488902
  O   7.31203965376365     -1.90686158095491      1.95750717829061
  C   5.17645314400508     -1.16120379549456     -0.15453884679508
  C   5.81383511706031      0.11736300047571     -0.12644150484488
  C   7.27502294535280      0.31720932872271     -0.27972173352354
  O   8.01135969762759     -0.52517025178677     -0.71867296414975
  C   5.02739148727755      1.22621074137662     -0.02745019733746
  O   3.67079247050313      1.16376477669225      0.02466608745258
  C   5.49042445531253      2.57138299244697      0.01301659951109
  C   5.86455520670034      3.70852666232586      0.04840555324874
  H   4.20845768209674     -4.27920378006197     -0.17685204999991
  H   7.52024925930184     -2.90341631751491     -0.92710213226215
  H   6.77722540032984     -4.22000459508032     -0.04040487329286
  H   8.64395318632746     -3.22981674219844      1.26177132589402
  H   7.65260290504561      1.31006750556540      0.00975293323842
  H   6.19881060161729      4.71884410503627      0.07937038845400
