30
Coordinates from ORCA-job 12575optt
  Br  1.08579320342223      0.44581385448584     -0.10999869854458
  C   2.94721608541000      0.22144610456234     -0.09002994759094
  C   3.50841781840965     -0.96425736818363     -0.45033509075484
  N   2.77488644081972     -2.07843618519775     -0.87460667656190
  C   2.14218649247251     -2.88973662007350      0.16943527323105
  C   3.11149824128955     -3.88617967477880      0.80472398946511
  C   4.34237547828142     -3.24198077474318      1.45747765773612
  C   5.59874246220909     -3.13360266740394      0.60123550520846
  O   5.49713377563939     -2.34519150649655     -0.60029842602333
  C   4.93623173463082     -1.10580518867437     -0.40415771793723
  C   5.70437929758597     -0.03124888794733     -0.11167906058570
  N   7.09324035748299     -0.14933495039110     -0.10347401742499
  C   8.00854235897882      0.80792232249422      0.21096847614992
  O   7.75103904878338      1.93335443310901      0.56889207596519
  N   5.13292265400014      1.16638266325149      0.18002973740557
  C   3.75009327455957      1.38031993493734      0.29027106346525
  N   3.23577205326114      2.48929113753350      0.65300658635813
  H   3.37844924736053     -2.67193199213577     -1.43169014754936
  H   1.29672078856981     -3.42098405972053     -0.27032207415405
  H   1.73955430730139     -2.21254226810066      0.92337586328819
  H   3.43357708418992     -4.60717105835436      0.04515712641994
  H   2.56231885143588     -4.45852590880219      1.55603883320170
  H   4.65004099801808     -3.84324094592871      2.31703276534946
  H   4.08145414546178     -2.25966335381731      1.86093838497229
  H   5.90645775527485     -4.11989653982235      0.25235722025835
  H   6.40346528093436     -2.71629795534911      1.21692542278634
  H   7.42807254574778     -1.04432380782997     -0.43074287558177
  H   9.03926441817735      0.44180870990859      0.10422456813039
  H   5.76070023588305      1.93122980448971      0.39767745016022
  H   3.94245356440878      3.18978274897912      0.86256673315699
