23
Coordinates from ORCA-job 12580optt
  Br  1.32424057469286      0.06697621240555      0.04499345180670
  C   3.18011424993348     -0.10447177909098     -0.00608566095572
  C   3.82476330636923     -1.31084076644944     -0.02821959303679
  N   3.07548669523493     -2.45716224526284     -0.02546221837304
  C   3.68585285621092     -3.59319485469695     -0.05075479615226
  C   2.90545135577732     -4.79472756836272     -0.05272189185726
  C   2.28251138205552     -5.81774701584628     -0.05549773766983
  C   5.18269291064141     -3.76439444229586     -0.08016035956509
  O   5.67840965035825     -4.87540393623973     -0.09872148140491
  C   5.92256511717691     -2.52875337265203     -0.08485464957454
  C   5.27782028707725     -1.32971811888761     -0.06093359004669
  C   5.95309584434310     -0.05906125721500     -0.08595530731053
  C   5.23745708204563      1.07938721784373     -0.05570711343451
  N   3.86927433627719      1.06424176973343     -0.01174702913489
  O   5.72455973137898      2.34337903211966     -0.09305944178990
  C   6.86644929041837      2.62343429660491      0.63327304464687
  N   7.54181748059046      3.65526258707646      0.47311856317310
  H   1.72902502888476     -6.72646778963466     -0.05906731144986
  H   7.00298596837268     -2.58979794506563     -0.11209566217458
  H   7.03068837765260     -0.01741952874449     -0.15965676372957
  H   3.37623758145694      1.94477731336201      0.01841006188026
  H   7.09737929504892      1.86783216793807      1.38081714852156
  H   7.17912159800223      4.24287002336045     -0.27791166236852
