28
Coordinates from ORCA-job 12596optt
  Br  1.09478251106232     -0.04513809898691     -0.11904544280876
  C   2.97856485371302     -0.07038979918897      0.00864192985614
  C   3.64728166916948     -1.27803056223379      0.22813538023839
  N   2.97790698545055     -2.50759394730130      0.33615154363882
  C   3.23100868131268     -3.51948664285622     -0.68395776127185
  C   4.50582792366735     -4.32301393436551     -0.45475516110924
  C   5.78818379333792     -3.49824627688883     -0.50713937419395
  C   5.89917194450943     -2.40091665278519      0.55345313019724
  O   5.50442091950511     -2.87909980973937      1.85206944457729
  C   6.38111616679415     -3.65491757534228      2.49443219455945
  O   7.44704696576174     -3.99298016193234      2.07520238456408
  C   5.03844466419845     -1.18665681052771      0.28629936607179
  N   5.67874441278639     -0.03398642922657      0.11310096384800
  C   4.93037670055856      1.04071581771462     -0.08556646509645
  N   3.60329804711056      1.07606167416667     -0.13505143304159
  C   2.31387720407403     -2.85315869041391      1.50027101688501
  N   2.18835573777081     -2.20274911472277      2.57551447757372
  H   3.26390456766661     -3.01617878166020     -1.65333365789991
  H   2.36719084947913     -4.18589647250270     -0.69864527382207
  H   4.56492533491996     -5.10282928524465     -1.21690771158044
  H   4.43266810959727     -4.83119965762398      0.51046263040587
  H   5.88905570005359     -3.01703065713918     -1.48460478194786
  H   6.64590572518945     -4.15924355424884     -0.38547355205452
  H   6.93049773571148     -2.05547919531689      0.60824257368107
  H   5.97200010730572     -3.93547828795550      3.47154150050616
  H   5.44385763559605      1.98540208030451     -0.21913013874265
  H   1.83805055359682     -3.83072368046791      1.41605960303090
  H   2.68653450010132     -1.31275549351425      2.55903261393535
