26
Coordinates from ORCA-job 12592optt
  Br  4.38520514623866      1.15821009426435      2.82615710119885
  C   4.92763854519367      0.42574456304370      1.19195211841503
  C   6.13791593692411      0.69664134303913      0.66412937001297
  N   6.44260262190005      0.15017166588400     -0.56087121045732
  C   5.80481220213837     -1.01035930618564     -0.91581111226259
  C   6.61703560927127     -1.97289404612074     -1.72941762077940
  C   7.54284393597909     -2.79050768662995     -0.80188026841723
  C   8.78367481982784     -2.07422059309691     -0.29508834240068
  O   8.42766509640155     -1.06211827313581      0.66941658161096
  C   9.10752710659778      0.08828505172271      0.62986404115744
  N   10.17555313024233      0.25059961651854     -0.01335866814806
  C   8.46248590884912      1.24048356858030      1.40466590303453
  O   9.15885307945632      1.97154965361807      2.05818788446663
  N   7.11040024923009      1.48679213557604      1.26514513360760
  N   4.65790535880195     -1.33415884272607     -0.45332603374182
  C   4.01763074166525     -0.49559580840482      0.48102010064486
  O   2.84706361569981     -0.60068981839206      0.73593774885642
  H   7.33744177573206      0.35936045028180     -0.97524623995902
  H   7.20870592893684     -1.44687062910827     -2.48429805109982
  H   5.92777734041881     -2.64357278541707     -2.23683076143155
  H   7.89983608914168     -3.65668013815577     -1.36302106369018
  H   6.96055581158364     -3.17456123008332      0.03817925006273
  H   9.33031527070609     -1.59890164848180     -1.11064386297392
  H   9.45980043083016     -2.77402762108693      0.19612092281276
  H   10.52856745454197      1.19600025652055      0.11838591026127
  H   6.76918679369081      2.18132002797602      1.92063116921954
