23
Coordinates from ORCA-job 12607optt
  Br  3.80807905430449     -0.54079074689918     -3.68424309689056
  C   4.69545076212770     -0.17521798594521     -2.07920455586589
  C   5.53479630691163      0.93224872769660     -1.92836658348807
  N   6.09733892267320      1.17741645285171     -0.78430896027455
  C   6.04199194859131      0.27699107424592      0.19061737699550
  C   6.98488169092317      0.47417514472920      1.29829481068339
  C   8.00568918552329      1.34225465426438      1.28145569360334
  C   8.95430884337165      1.38092095398099      2.43569426158680
  O   8.80316180243084      0.75811308895737      3.44899688628901
  N   8.30540868569381      2.25355193854911      0.22010408699353
  C   8.39390290975155      1.76803661249827     -1.08367855651203
  O   8.84913627401891      0.68580637903483     -1.34334742576936
  C   7.92812076660626      2.72190105723712     -2.14885390355309
  C   6.83454570112294      2.66292770192580     -2.90364439419667
  O   5.79559658468022      1.75643450879086     -2.95450661446040
  N   5.27506567118697     -0.80488480638328      0.15887304367228
  C   4.58288825851943     -0.99432524932783     -0.96677441164901
  H   7.77996737420737      3.11656724789531      0.27737464255326
  H   6.89655392093020     -0.18426673165748      2.15346232659162
  H   9.82503913748354      2.04223348564202      2.27828989589065
  H   8.59670374125181      3.54280705827335     -2.38141984019922
  H   6.67263041456811      3.39897641373517     -3.67785441191021
  H   3.93674204312150     -1.86387698009505     -1.00396027009029
