21
Coordinates from ORCA-job 12601optt
  Br  2.75143876633249     -1.10048399705456     -1.97572532394233
  C   3.25086531565007      0.10538220484267     -0.63403372064739
  C   2.35804878838335      0.74571575379722      0.14205449274327
  N   1.01188133765448      0.40206581421123      0.12737130733148
  C   0.08190239270195      1.05673568219140     -0.42971556391935
  C   0.30345230104888      2.41800422458340     -0.90392550760301
  C   -0.53937516035372      3.40552427714059     -0.60944711432357
  C   0.04922834618925      4.73569318664537     -0.27381909850055
  O   -0.47546750024768      5.80195630292291     -0.36731868375796
  C   1.46874924285946      4.58948108641011      0.36197259136099
  O   2.39973101445659      5.28123309222511      0.12103828537974
  O   1.48339587779945      3.50227278145653      1.18329925001909
  C   2.70524554052776      2.93048350916427      1.46726192176054
  C   3.01943219817233      1.69771186536791      1.06869089904032
  O   4.23278418909568      1.23283454271042      1.50929695733356
  N   5.13061845510674      0.77732611694107      0.48989351569100
  N   4.63026453654745      0.29341598332963     -0.50942754680995
  H   -0.92886244149818      0.65956338729261     -0.36885204403917
  H   1.33709413456345      2.64845295654369     -1.14841305896123
  H   -1.58170844884254      3.24028865671121     -0.36000685871615
  H   3.40128111385272      3.51334257256717      2.05380530056065
