26
Coordinates from ORCA-job 12602optt
  Br  1.16923671345389      0.12881491013066     -0.29302581537953
  C   3.01117927486130      0.27534005296008     -0.06863646270384
  C   3.62407344400567      1.37021240891210      0.38631149210650
  N   5.03439442053681      1.38991466013971      0.48917648909599
  C   5.69560805380818      2.64482855434377      0.85164298663088
  C   5.60402358809581      3.66626214893280     -0.28385683749030
  C   4.20056772986449      3.74220789777000     -0.91503513655750
  C   3.14156404236732      3.76027401769967      0.15962383133490
  O   2.55980707908641      4.75280207908312      0.50576892635039
  N   2.93658124766708      2.52255388746196      0.80726256023612
  C   2.17772827697407      2.50493715007135      2.00838038580004
  N   2.01085233764105      1.53850542143046      2.79177495824161
  C   5.79110338226806      0.33341985980467      0.08275992707849
  O   6.99930765099400      0.33140069503831      0.06439389685949
  C   5.03673440319478     -0.90855452069100     -0.35986963184760
  N   5.59664122947291     -1.97165090425207     -0.69124202816774
  O   3.66799738556357     -0.85553133665671     -0.40367958748293
  H   6.72988904522959      2.40031476115219      1.07462352686171
  H   5.22783158559702      3.02320138424741      1.76047200858483
  H   6.32558385248792      3.41308893476266     -1.06108275945055
  H   5.87928850848066      4.64320358845859      0.11585459130855
  H   4.03974289475069      2.89089827660388     -1.57864792203611
  H   4.09111832603210      4.65562285065113     -1.49340543676799
  H   1.73041267794590      3.47388626822361      2.19972185271920
  H   2.47666544808936      0.68509359708731      2.48181682854712
  H   6.60606740153131     -1.84704664336569     -0.61010264387173
