22
Coordinates from ORCA-job 12608optt
  Br  1.35241451751838      0.53979861506220      1.08140986328510
  C   3.11396065883156      0.16104194714903      0.59259354217859
  C   3.63537688066111     -1.05679490789871      0.36885383339318
  N   2.99083561963880     -2.30340281566629      0.30718324086617
  C   1.59311500950024     -2.49062203539414     -0.09941952461970
  C   0.68273228719737     -2.71634001963051      1.02185481454197
  C   -0.06481545592133     -2.92452535832799      1.93128793939035
  C   3.69643277774796     -3.46385109963922      0.50351536731321
  O   3.20857662254959     -4.55117880115625      0.51611956434581
  O   5.05376560543430     -3.35405917800349      0.67888147421555
  N   5.74427408629075     -2.21492054271005      0.32259320110811
  C   5.07162608144299     -1.14505172309251      0.18870842390478
  C   5.83117802409773      0.08776032370151     -0.14855224039052
  N   7.02088919273454      0.12824554765057     -0.55632453410317
  C   5.09400143667815      1.38559820189438      0.02169166492638
  N   5.54424655790378      2.52230932631435     -0.22287008168399
  O   3.81948601559757      1.31469416758919      0.53382984033085
  H   1.56878428021004     -3.36421447099405     -0.75070934705265
  H   1.29025684770181     -1.61963675020607     -0.67716349501089
  H   -0.72736745512801     -3.11136253370603      2.74268672509870
  H   7.41579956782526     -0.81232719745896     -0.62295225600348
  H   6.50343084148742      2.43083930452308     -0.56121801603434
