25
Coordinates from ORCA-job 12616optt
  Br  1.36368681542300      0.11912808032129      0.40191729984401
  C   3.21984965113732     -0.02132801905547      0.19295504482444
  C   3.84544233574366     -1.23178137312806      0.06594278775048
  N   3.18062538293070     -2.42325845389018      0.10774025969729
  C   3.86477895219221     -3.51616105790945      0.16306087935173
  C   5.28899331869271     -3.54943430245951      0.23198361297239
  C   5.94789588637750     -2.37716584116034      0.08346404945892
  N   5.23965123303234     -1.21607139548470     -0.09802127680903
  C   5.86565908595194      0.02427673305776     -0.54230724383828
  N   6.84948998899609      0.07346949485378     -1.32676455879871
  N   5.29918187008685      1.15498712632593      0.00156979593551
  C   4.04272293442193      1.12993613363496      0.30211696190715
  C   7.44881809284709     -2.34665466725115      0.19055342371972
  N   8.20202929729672     -3.10933273362373     -0.49386370912127
  N   7.92349586954732     -1.48272040096771      1.13914154842653
  C   9.27293524923363     -1.21271817518010      1.42949640359169
  N   10.30136846359567     -1.75351813797838      0.95545554581081
  H   3.30132044750604     -4.44417679642901      0.17777882478418
  H   5.83199428658032     -4.46397115275193      0.41468599806933
  H   7.13891776243038     -0.82757217122663     -1.69412946857292
  H   3.60224046797981      2.04944705508798      0.67747826651803
  H   7.66169697581573     -3.67057054387001     -1.14546653538399
  H   7.25176999250204     -0.88579246866295      1.59613072854320
  H   9.35928680168838     -0.42550151601181      2.17681334705226
  H   10.07014883799058     -2.46851541624057      0.26826801426652
