21
Coordinates from ORCA-job 12613optt
  Br  1.09053728162546      0.11808052563244     -0.06591604929744
  C   2.96437561666204      0.00912884055365     -0.06438278646025
  C   3.70026659880766      1.19593041903146     -0.06392995811249
  N   3.07939474490117      2.39877105535839     -0.06407348602169
  C   3.78305545577493      3.48942530915960     -0.06356856243123
  C   5.19981732475391      3.50324561327758     -0.06297415781882
  C   5.82009761322176      2.30254217464489     -0.06281884487097
  N   5.08857441088245      1.15008886081696     -0.06324839050018
  C   5.77448077629461     -0.08531736703797     -0.06300962282952
  N   7.06238474355366     -0.13375395436016     -0.06259936917683
  S   7.53823012087225     -1.74839086130876     -0.06207423057174
  C   5.88299577527360     -2.44129188036990     -0.06273987792024
  O   5.61895573532190     -3.61505878693443     -0.06278362603149
  C   4.99846374099402     -1.27245362175843     -0.06313979670600
  C   3.61119270645725     -1.23900387962857     -0.06380241726592
  C   2.86666597297966     -2.45226520329835     -0.06386878940023
  C   2.24827463023800     -3.47727434790284     -0.06457539281726
  H   3.22568577788158      4.42093845656795     -0.06367612216789
  H   5.76394435539886      4.42263596603679     -0.06263893662873
  H   6.88995513571720      2.14765224513115     -0.06234984421921
  H   1.71365148238799     -4.39762956361145     -0.06482973875188
