21
Coordinates from ORCA-job 12611optt
  Br  1.18827664262268     -0.01064076953008     -0.32251259532173
  C   3.05354203491014      0.06093860832712     -0.16675189366477
  C   3.70124679721083      1.27215530232569     -0.12722940174524
  N   3.00539014432532      2.46541126998900     -0.09004572984844
  C   3.60161172979517      3.58308243907094     -0.14351707961069
  C   2.82985577686377      4.87220184441742     -0.00735911648004
  C   2.64728141426194      5.53809126555238     -1.29501929463818
  C   2.48528319282079      6.07491463180698     -2.35113237366427
  S   5.37937984588800      3.74940825314442     -0.37716306524972
  O   5.60769890303442      4.00191445004472     -1.76468540725565
  O   5.85979088885790      4.67776551832615      0.59785829196991
  N   5.93980309613134      2.26628879657322     -0.02044031760088
  C   5.13879483578606      1.25784726943558     -0.03946243343769
  N   5.69337989016977     -0.00166477520454      0.07350007531736
  C   4.95668119849742     -1.12664255379157      0.02771414724436
  N   3.67180864147408     -1.14001055689348     -0.10313346272204
  H   3.36626271545400      5.53357878979393      0.67712537370264
  H   1.86065792377769      4.62227261618350      0.42515205929491
  H   2.35248035507612      6.54856510582690     -3.29423232990314
  H   6.70195194575279     -0.04066316842497      0.15356536809041
  H   5.49982202728971     -2.06081433697338      0.10376918552288
