28
Coordinates from ORCA-job 12617optt
  Br  0.98617558589379      0.09925098256395     -0.23172374351311
  C   2.86649730971255      0.12314329875065     -0.11330330609750
  C   3.56745558633972     -1.08046051010622     -0.11197044544269
  N   2.94979222647207     -2.27368522377562     -0.18446822679853
  C   3.62682873557908     -3.55750174409946     -0.16398270941006
  C   4.93327720925915     -3.40427481553174      0.59000828419741
  C   5.72318094683334     -2.25792761038134     -0.00938628392027
  N   4.91840759801354     -1.03469000601701     -0.02972607755626
  C   5.64046661252238      0.20330592806113     -0.00862587760469
  O   6.85185372685788      0.14426619776185     -0.01925768726039
  N   4.91442461209257      1.34215308443749      0.03036444187309
  C   3.59893839415879      1.31326584921478     -0.01780786872229
  N   2.86943110541478      2.50584700982694      0.03756582020423
  C   3.54836698397384      3.58638708171089      0.06421465817246
  N   2.91727913936931      4.78358363093629      0.15775886350168
  C   3.52200320492442      6.04103088573732      0.19267609060148
  N   4.73984558460029      6.34655429395539      0.10270831292881
  H   1.94614641272245     -2.24045113929843     -0.26268404141766
  H   3.81829209881243     -3.90579890463782     -1.18366439056360
  H   2.96957094429482     -4.27936789458458      0.31942188333615
  H   5.51622075370176     -4.32220515895057      0.52870847936047
  H   4.72748947612602     -3.20070765383410      1.64271454658006
  H   6.04219061086711     -2.49097898874489     -1.02879869807116
  H   6.61739183767085     -2.02944853337001      0.56344506070978
  H   4.63577257047067      3.59901105766029      0.02255457051842
  H   1.91011357947051      4.74009721218478      0.22124809900535
  H   2.78597342971508      6.83262156513933      0.31946164189644
  H   5.35961372413072      5.54798010539070     -0.01745139650763
