26
Coordinates from ORCA-job 12621optt
  Br  1.05068570469104      0.11348613236988     -0.23778299428665
  C   2.90199249108030     -0.08060908509734     -0.07314565418662
  C   3.50831304538146     -1.28563161397580      0.00608404001406
  N   2.84840919457431     -2.50595854543757      0.07604346042123
  C   3.58926804756121     -3.71795197419739     -0.24699457183812
  C   4.92906507769014     -3.67790914821753      0.46614357479494
  C   5.75430723948276     -2.48175991729452     -0.00838278789638
  N   6.23916688928869     -2.66451327073239     -1.36984270565360
  C   5.63314337556822     -2.29853240870390     -2.54884141552037
  C   6.44373266224675     -2.77223094315239     -3.54029867356807
  N   7.52473087750769     -3.41822336153996     -3.00463974027305
  C   7.37258900427804     -3.33445664006421     -1.71097545951042
  C   4.94808862529126     -1.19660976406121      0.05759154913843
  N   5.61196029842766     -0.09493122012587      0.11989517016162
  C   4.95555332282323      1.11686465926960      0.13362408034883
  O   5.45379384326027      2.18579590253191      0.25974127791585
  O   3.56148880985872      1.07212718636643     -0.04106849217115
  H   1.89933979443444     -2.47635384390886     -0.26658537036630
  H   3.74967143728503     -3.83441697094577     -1.32540780786262
  H   3.00394751524112     -4.56889424325179      0.09778761862038
  H   5.48890617982203     -4.59390537647318      0.27853925080571
  H   4.76420760839570     -3.59009614087181      1.54245689988981
  H   6.62972321184544     -2.33920531126947      0.62497621799999
  H   4.71928833717356     -1.72936467714391     -2.57345555112669
  H   6.31321348777074     -2.67294958012534     -4.60473350020543
  H   8.04641391902010     -3.72576984394758     -0.96372841564538
