22
Coordinates from ORCA-job 12627optt
  Br  0.98661102648037     -0.23967764926419      0.03920842473508
  C   2.85765289274533     -0.06299931485730     -0.04320730730182
  C   3.64300295849029     -1.17179988867619      0.08152263824637
  N   3.20080094200092     -2.45520275784525      0.26292311977917
  C   4.25909356350935     -3.31692341885934      0.36666954945862
  C   5.42540524226898     -2.63417258111305      0.24864531820810
  C   6.71347970984196     -3.21850693413669      0.34674345018638
  N   7.76233714985157     -3.67848213537764      0.43640370318907
  C   5.08632219718715     -1.22716982926573      0.05038469182209
  C   5.85544088419901     -0.12469236717776     -0.13983256627301
  C   7.36425668774828     -0.17533152066578     -0.15259335584275
  O   7.93410754497163      0.88660117029790     -0.91215222905815
  C   7.82935592793490      0.75250201765898     -2.24429767905536
  O   7.28611789228342     -0.15338916812480     -2.79616168411046
  S   5.17063063731410      1.43414051802783     -0.32606307056994
  C   3.37229975828154      1.26345152855502     -0.22796454655994
  O   2.74052278493398      2.28322140915544     -0.33211173499137
  H   2.22502219607714     -2.70000767699438      0.31761288431230
  H   4.10762856024329     -4.37194406290048      0.52384141912153
  H   7.70174941247920     -1.13200616219554     -0.54664711256053
  H   7.75056821668108     -0.04382744290852      0.85785591455080
  H   8.31859381447642      1.59821626666746     -2.73877982728619
