27
Coordinates from ORCA-job 12629optt
  Br  1.27723589992717      0.16650117333363      0.00271722012633
  C   3.13610836695614      0.04333665641511      0.26716818409713
  C   3.80663493073422     -1.13072698271905      0.03359184126348
  N   3.13194626038294     -2.24962451888191     -0.39173837817800
  C   3.75633204872262     -3.43805580651085     -0.63367103031735
  C   5.07585049065672     -3.60603333357848     -0.46781788081694
  C   5.91435761161741     -2.50507299584671     -0.01658819712230
  N   7.19410510937493     -2.61341126113060      0.16152374687488
  C   5.21972749909105     -1.25303590012370      0.22553313119730
  C   5.89420708501086     -0.10404366734230      0.66412917505422
  N   7.21378858624791     -0.11126091669305      0.88702452243085
  C   7.95151694256660      0.98272050447863      1.47166935241052
  C   8.02267258110062      2.17618040849587      0.61658348704852
  C   8.02874628410775      3.15184902803989     -0.07717764145788
  N   5.20197076973884      1.03977365409945      0.87929931784486
  C   3.81533472801847      1.23175822499102      0.69268690010473
  N   3.24233573932756      2.35684138769715      0.88501470166209
  H   2.13741154394372     -2.16043821284813     -0.53253671329928
  H   3.10815297004234     -4.23586635331943     -0.96917465702565
  H   5.53003327305089     -4.56553246327245     -0.66883884554049
  H   7.52062421917176     -3.55022775805529     -0.05177184494749
  H   7.64903804278806     -1.03203551769639      0.68591130863655
  H   8.96017506162952      0.62449118493158      1.67280999405858
  H   7.51920821630668      1.26796744236453      2.43775440958199
  H   8.04876093263382      4.01562695724983     -0.69915311234267
  H   5.72522102415705      1.88558858413953      1.05634855596398
  H   3.89450378269423      3.07673048178213      1.18470245269207
