21
Coordinates from ORCA-job 12632optt
  Br  0.97978128749189      0.16847423704236      0.05122368085184
  C   2.83591322468756      0.00620796070070      0.17609460033773
  C   3.64899611811632      1.09120866507300     -0.05147806594901
  N   3.32739792371461      2.38178472201214     -0.33447617432785
  C   4.47878477446198      3.01843713364164     -0.39229873692114
  C   5.62003014006242      2.19271044049754     -0.16059894106439
  C   6.96200380298025      2.62962556403608     -0.08060933966252
  N   8.05425476854263      2.98454363297781     -0.01624823670935
  C   5.07810986940056      0.92663850463348      0.05037116874982
  N   5.60146453671185     -0.30120116491699      0.32970164917677
  C   4.77375502202521     -1.35010422429540      0.58049036025474
  C   3.41470864965480     -1.22779241331708      0.51629003967148
  C   7.00446450104300     -0.53418079861120      0.30871790807549
  N   7.57063292657561     -1.23238012026569      1.25532952928983
  S   9.13431579878951     -1.37636446198970      0.85699331555016
  N   9.10809079780172     -0.55310521684383     -0.53757954296743
  C   7.88428289933301     -0.13409639008436     -0.73527098001871
  H   4.52603439562004      4.08079912526995     -0.58992422373017
  H   5.26946675057742     -2.27896562802150      0.81716360832016
  H   2.79703327137040     -2.08970612523923      0.71598331762024
  H   7.62047854103915      0.44546655770027     -1.60787493654770
