27
Coordinates from ORCA-job 12633optt
  Br  1.10205091070788     -0.08719729453812      0.29453753149868
  C   2.97145297906134     -0.15550840107731      0.15370226564171
  C   3.67896829657051     -1.30101753714743      0.30000116893296
  N   3.16081643586231     -2.58889071554870      0.50492865858516
  C   3.33792133958198     -3.49474439562731     -0.62246176607104
  C   4.67699280100312     -4.23652600282014     -0.57628547321325
  C   5.90008256882100     -3.32134144232737     -0.59235852820908
  N   5.93149379324313     -2.28265465429315      0.44779296044191
  C   5.11577159199242     -1.14192234158301      0.18672298827650
  N   5.70975992225607     -0.05151489066528     -0.14790926611282
  C   4.96721237910973      1.10208952553149     -0.37676011492609
  N   5.42049501402808      2.21417882748694     -0.78398901651897
  N   3.59655820126281      1.01842611135164     -0.09199691515109
  C   6.15642898212864     -2.67917773011208     -1.94424185638418
  O   5.59145949972212     -3.01122039224162     -2.94906825119521
  C   2.21575573304532     -4.50467723257305     -0.63644011855755
  O   1.27938002207552     -4.46447797302238      0.11007764219279
  H   2.19694958028893     -2.60112159906464      0.82057109976726
  H   3.27323349896158     -2.96375452963601     -1.58583138973207
  H   4.74226377911910     -4.91560471525087     -1.42946125901056
  H   4.70444644763308     -4.83395893742114      0.33916195914215
  H   6.78485011719525     -3.94769351888169     -0.42056800643610
  H   5.61176438441415     -2.70431566555390      1.31578536013288
  H   6.42550693845608      2.14237289499239     -0.90921997010128
  H   3.06900018063299      1.87269534413545     -0.19559935924923
  H   6.92443323632045     -1.88701621057259     -1.93993634739768
  H   2.31495136650630     -5.30142652354008     -1.39615399634577
