26
Coordinates from ORCA-job 12631optt
  Br  0.97617419770996     -0.19522466628417      0.46524794447421
  C   2.84599225286873     -0.09719060463074      0.20660937375030
  C   3.58395931439235     -1.24398960786534      0.19991906783051
  N   3.01689642877653     -2.48837283767864      0.38231237450964
  C   3.30944042829931     -3.56227312292455     -0.58318257994890
  C   4.54690465752811     -4.37161935300989     -0.24092807242169
  C   5.82239493824845     -3.54880777069547     -0.32213270126504
  N   5.83441841509105     -2.33497750885164      0.49292825069000
  C   5.04965846493065     -1.21861343578842      0.09317980910032
  C   5.71228559737108     -0.10445820935087     -0.28732366257999
  S   4.99059905543204      1.43742761982760     -0.60928318809879
  C   3.35449618231791      1.26234738044707      0.06848011972959
  N   2.64587855369260      2.28756013425595      0.28922472835751
  C   7.13687800353843     -0.11110812315297     -0.41924571038059
  N   8.27332748717653     -0.06670415815379     -0.57248401646879
  C   6.20458289714101     -3.19559481426226     -1.74876914923341
  O   5.71297583695718     -3.72173748944900     -2.70680540845936
  H   2.02752848314459     -2.41668887765153      0.56891589672768
  H   3.39768036684140     -3.15381661723392     -1.59419038184138
  H   2.44099271113892     -4.21930139244155     -0.57874333490252
  H   4.62411128957978     -5.20951854976451     -0.93560562579529
  H   4.44477767267603     -4.77376889014146      0.76948070032047
  H   6.66406898559186     -4.15563468550252      0.03554658720550
  H   5.63973618768194     -2.56511719887956      1.46121087757216
  H   3.14532486098524      3.16108832514418      0.13777100510244
  H   6.99991673088827     -2.43490554596197     -1.85013290397459
