26
Coordinates from ORCA-job 12646optt
  Br  6.91651948464604      2.13024023203980     -2.59252907964683
  C   6.41462159348912      0.32455406108236     -2.33645777081101
  C   6.56030120708261     -0.59712434421716     -3.29712140090006
  N   6.16786047690856     -1.94017975945129     -2.96662817385853
  C   6.69869303016681     -2.45995719892563     -1.67610539737233
  C   7.22196769129114     -1.33764492542737     -0.83334043770338
  C   8.46118889028792     -1.16416911932689     -0.36163886089317
  N   9.61792336795111     -1.96620130925588     -0.41431008455999
  C   10.36964794790556     -2.13606491107854     -1.42258907658453
  C   10.01011586697969     -1.66339067371216     -2.78580947695189
  N   8.79673377547951     -1.68242158128169     -3.12471312184162
  C   8.65976210097264     -0.91843222131346     -4.28939855933744
  C   10.07023274190556     -0.73412834759614     -4.81471347844583
  O   10.88256499980252     -1.10824705978355     -3.65950192081778
  C   7.45980165018264     -0.35708604140091     -4.47243023007349
  C   6.33729372863897     -0.12626823750972     -0.90811020520842
  N   5.77533142183458      0.53218910131033      0.00951429915068
  H   5.15783737565009     -1.98846247349787     -2.96177651996466
  H   7.47312749815543     -3.19886634521761     -1.86402774416465
  H   5.87324094116773     -2.94736194541413     -1.15132759424615
  H   8.66420086208058     -0.26137961290019      0.21126790131879
  H   11.31280444567354     -2.65840527005729     -1.28092241468329
  H   10.31144731813951      0.29187811686814     -5.07936986255751
  H   10.32687684790683     -1.40688574225154     -5.63454693047752
  H   7.24282978273167      0.36982528300797     -5.24131738498432
  H   5.93007495296953      0.08299032531046      0.91290352561496
