30
Coordinates from ORCA-job 12643optt
  Br  0.95655139023216      0.34945443060340     -0.31719359977972
  C   2.84107650256622      0.19918465493735     -0.24903878877124
  C   3.45386943273817     -1.01678590252986     -0.56944854871548
  N   2.66154600778351     -2.12769623530501     -0.93379319235324
  C   2.17982574959046     -2.96886250295701      0.16699577251490
  C   3.21871138356175     -3.91307604908372      0.77372312981460
  C   4.42618917848396     -3.21902621562550      1.41923716168160
  N   5.65125299401386     -3.09768720139557      0.63564222211148
  C   5.55440858068211     -2.40761440593647     -0.65499360998540
  C   4.85379964505493     -1.08566280230420     -0.49045929301103
  C   5.59148638976492      0.03133231440330     -0.13216330227750
  C   4.96520820696156      1.23727218130649      0.17685111587891
  C   3.57370270354933      1.31021710565022      0.12556886848082
  C   5.73330588918396      2.38316494326059      0.55754638828326
  C   6.37848751453148      3.34283573922523      0.87586596968702
  C   4.82471342144220     -3.84897451012922      2.74501540695602
  O   4.13208707079829     -4.58217615012481      3.39074984623724
  H   3.12464194786877     -2.69507893645858     -1.63013201931862
  H   1.33571924192726     -3.55141196942979     -0.20555292358373
  H   1.78662854024565     -2.30344031398314      0.93884843319883
  H   3.57626469395682     -4.60989900998682      0.00762522909992
  H   2.72625073512683     -4.51670267399334      1.54004910597635
  H   4.13508968644525     -2.19954954526921      1.71125418989441
  H   6.05562347061214     -4.01643270875598      0.48635738245242
  H   5.05248764385843     -3.01741788049556     -1.41510326918395
  H   6.57111023066696     -2.23600748525921     -1.01024596963926
  H   6.66944090004401     -0.04060394359826     -0.05983056543405
  H   3.07088868803883      2.23537392580160      0.36875958375738
  H   6.94806838126374      4.19444701312691      1.16214235245880
  H   5.83156377900626     -3.54917586569371      3.09172292356926
