32
Coordinates from ORCA-job 12656optt
  Br  3.13228659126634      2.63252860688570      2.53694230323106
  C   4.31614967108403      1.50829341986193      1.58539815546371
  C   5.09800624702296      2.00330142094125      0.59386436523281
  N   5.90094471569662      1.13116329516298     -0.12918531139327
  C   6.82443407046846      1.58491271503985     -1.17099472097833
  C   8.29993609261188      1.49239548616780     -0.75675182368526
  C   8.82044918259837      2.80976880269716     -0.18510856652299
  N   7.99489694250309      3.28867222143299      0.91370355442549
  C   7.24096163311193      4.52380341585569      0.75289043763922
  C   5.78198866240010      4.32612242134160      1.14111213799549
  N   5.12127238295809      3.36288356307212      0.26344881430202
  C   4.54719627808293      3.78802624764022     -0.90634611317809
  N   4.65684233597130      4.98448535003635     -1.31526967133118
  C   5.88415721356755     -0.24169538023396      0.13766209649862
  N   6.53031178220054     -1.16046565377420     -0.47377563207911
  C   5.03643129632202     -0.61687932034142      1.26856984899876
  N   4.31252972972880      0.19528999588928      1.94389653706606
  H   6.58018838533233      2.60905282921139     -1.43644482904390
  H   6.62661396780063      0.97285521555470     -2.05352509316832
  H   8.90045221251320      1.21488208558826     -1.62730430883981
  H   8.42083217730814      0.69716935897540     -0.01896159764413
  H   9.85577165387469      2.67417704353095      0.13725298376662
  H   8.84057373709089      3.55942458709756     -0.98239608503636
  H   8.47716609384322      3.25263576249434      1.79722783099093
  H   7.65617093080320      5.34343536798844      1.34938240004429
  H   7.27506230098062      4.84218117992619     -0.29120463335477
  H   5.70930744299117      3.95101786593891      2.16180055826149
  H   5.23215485991104      5.26441536089293      1.06931040287992
  H   4.00462592491500      2.99251562534036     -1.42481863609344
  H   4.13573377267750      5.11653990592126     -2.17538330306009
  H   7.11392502343890     -0.82506147891941     -1.23180895094245
  H   5.04162668892435     -1.66884731721668      1.53081684955500
