25
Coordinates from ORCA-job 12659optt
  Br  2.91251083404577      1.10722441275855      2.48018024491508
  C   3.11165633404072     -0.08756755166911      1.05233662943682
  C   2.13126493511180     -0.92495035443100      0.66140877348685
  N   0.91303193808457     -0.97087405962109      1.29436753894198
  C   -0.06569164345025     -1.56591802641673      0.73793063817362
  C   -1.18783971867544     -2.06748880339169      1.50862546978173
  C   -1.60176492129022     -3.33025780829262      1.31993736198004
  N   -1.18847924523613     -4.19772750063849      0.30740393966170
  C   0.00157111603806     -4.38596662198235     -0.08219047424986
  C   1.28333106755244     -3.82785958239475      0.48951186888701
  N   1.74148631322740     -4.00718845983342      1.64834911221749
  C   2.13345936301184     -3.13113702339070     -0.56268503078298
  O   2.45873152065253     -3.78389258874470     -1.53566044692999
  N   2.46072081892426     -1.80828620696816     -0.43025705668879
  C   3.34646023605655     -1.25769723015994     -1.40293487438109
  C   4.26287189390609     -0.38899084676661     -0.99554175952590
  N   4.28892852108294      0.01279716652743      0.33971916438319
  H   -0.02565622985976     -1.87923022057077     -0.30849741046964
  H   -1.59144607917133     -1.48250975399850      2.32426459079883
  H   -2.39762547683785     -3.73888074495882      1.93141581171788
  H   0.15285088033153     -5.01067366616912     -0.96229540450671
  H   1.10394030258870     -4.56904990876140      2.21653157745913
  H   3.24138600248209     -1.60496984819981     -2.41718496238988
  H   4.98601444108380      0.05680880084351     -1.66115798119244
  H   4.94828679629987      0.71328642723032      0.63042267927592
