29
Coordinates from ORCA-job 12651optt
  Br  1.18163249138639      0.50285608624131     -0.42275533019551
  C   3.03833961206268      0.18250235886589     -0.32184599351548
  C   3.53832714257977     -1.10389583432632     -0.52217914314986
  N   2.69040562993078     -2.19157241512203     -0.79130952360206
  C   2.02510444555360     -2.77618649631852      0.37862110583543
  C   2.85629892322842     -3.82321307053560      1.12314628092798
  C   4.31345752317049     -3.41735610864710      1.37724166930357
  N   5.19482491225459     -3.58276612960287      0.22513797745076
  C   5.58149947863505     -4.93636637108846     -0.14637512607608
  C   4.69360662771325     -5.51349425927985     -1.16452836140955
  C   3.95433684804114     -5.95911848424680     -1.99454887764738
  C   5.52796555535350     -2.60560583771804     -0.66930493832561
  O   6.22526967765130     -2.82246027510426     -1.63612365045618
  C   4.92944905599931     -1.23915200323808     -0.43773137462401
  N   5.77465751761638     -0.24383976011136     -0.21455381527956
  C   5.26398589878691      0.96667565898077     -0.02373559617767
  C   3.90230047248243      1.23123747275965     -0.06166134492755
  H   3.14335616573352     -2.90104760471078     -1.35607073513393
  H   1.07828447744835     -3.21489074511228      0.05944235545765
  H   1.77887023101110     -1.95276305295317      1.05114902631370
  H   2.84756310302337     -4.76654353783182      0.57192062035189
  H   2.37706288195347     -4.01920200751087      2.08565757635645
  H   4.72374762701873     -4.03619134947809      2.17777626207012
  H   4.37643238462537     -2.38503011440624      1.72114245548570
  H   5.57108315582787     -5.55807348606222      0.74961970410018
  H   6.59747745489571     -4.91166888940692     -0.53967200676110
  H   3.30933263062017     -6.35882505948154     -2.74046798220647
  H   5.97043239714697      1.76495903027999      0.17173855971015
  H   3.52489567824927      2.23203228516572      0.09327020612444
