26
Coordinates from ORCA-job 12650optt
  Br  4.75274130221474     -0.21471903357142      3.33873905120001
  C   5.05577109850720     -0.31408473160241      1.48741548033819
  C   6.08644984530363      0.34944171720667      0.91322456117755
  N   6.23732840238386      0.31365101854665     -0.48548820261939
  C   6.19684450319008     -1.02216720088110     -0.95900903291645
  C   7.32439414955891     -1.56512883581815     -1.43949352962968
  C   7.72565753240409     -2.96070875519223     -1.23862520797850
  N   8.85819278098710     -3.27321806724042     -0.74806955509037
  C   9.87354845085609     -2.37162833012457     -0.40844508640938
  C   9.83448236034966     -1.30163992079405      0.40745900233213
  C   8.62252699851973     -0.75361428706373      0.99964350174789
  C   8.41610085679445      0.52379822618257      1.34413796200336
  N   7.09432645714870      1.03186198393047      1.57071423934010
  C   4.92632563147489     -1.70760965755292     -0.60641062427549
  N   4.38151281168700     -2.63092631059647     -1.27195434418906
  C   4.24330937520733     -1.24455373381568      0.69760773272724
  O   3.20755666414744     -1.73124666893277      1.05704268844558
  H   7.09106381057886      0.78545525306270     -0.75484128934989
  H   8.15885077689855     -0.88765275231485     -1.58231694377702
  H   7.01417931433575     -3.76823490501281     -1.39417131808331
  H   10.83839821807492     -2.67851463362103     -0.79789692215559
  H   10.77025705749696     -0.78343719466436      0.58300390738901
  H   7.77792318280164     -1.43032219068983      1.06004523722766
  H   9.20813911418440      1.26243924643674      1.37905389459630
  H   6.87000632225271      1.28351216606312      2.52599732860263
  H   4.91911298264121     -2.83675240194013     -2.11636253065353
