27
Coordinates from ORCA-job 12677optt
  Br  1.22254379584380      0.48260584779074     -0.22368603686386
  C   3.07669490240233      0.15266189327614      0.02597894047140
  C   3.55895216985580     -1.17159040315601      0.08215947223991
  N   2.67255067383893     -2.20346561758363     -0.00761840623930
  C   2.93792789070916     -3.59670370135197     -0.29120457941799
  C   4.26532621350010     -3.78763544801843     -1.01945277977716
  C   5.41883616220405     -3.56565001638413     -0.08572544042805
  N   6.32056270565821     -4.60625881940916      0.12301552798295
  C   6.07067141379171     -5.97263696413573      0.13189576856430
  N   4.95423067022452     -6.57556728233181      0.18361024218331
  C   7.29078181916671     -6.75256935098305      0.08289926579104
  C   8.31548372832732     -7.36964796801186      0.06641023754798
  N   5.69976722083885     -2.45723426802737      0.46374510864425
  C   4.95805599959187     -1.28467719788670      0.28467306118297
  C   5.69842826107898     -0.10784675636077      0.42050873644987
  N   5.22259472607595      1.12283189908451      0.34384559164704
  C   3.91250858102034      1.24047203100192      0.15098966311895
  H   1.71273108680873     -1.91855141079057     -0.11085166683520
  H   2.12201459517290     -3.96343271184156     -0.91565696439956
  H   2.93034701352069     -4.18931560596939      0.62929106397595
  H   4.34149857448964     -3.03801241443762     -1.81148570315015
  H   4.31374996019286     -4.76915387385237     -1.48492141640336
  H   7.21122447884115     -4.30759571242934      0.49685981602536
  H   4.17662889432518     -5.93208528114868      0.30216435592913
  H   9.21606875580249     -7.93705454612008      0.04967724816423
  H   6.76013691364038     -0.22079733199143      0.60985467272823
  H   3.50268279307722      2.24191101106841      0.09402422086776
