24
Coordinates from ORCA-job 12673optt
  Br  1.88543202977844      0.32878496993798     -2.41217838874898
  C   3.20583631153260      0.23643745027058     -1.09529231171176
  C   3.64297880740425      1.30257264507813     -0.38602192026603
  N   2.88357672780162      2.45790654672498     -0.21996127607790
  C   1.56007888623517      2.41119848233667      0.23137670475434
  C   0.86052905332627      1.35227650656423      0.68180173824746
  C   1.42715722684468     -0.00481949380877      0.83077471095420
  N   0.93584892480474     -0.97549173033943      0.18502677781396
  C   1.66116440173492     -2.19410988887530      0.08269154753496
  N   1.11622212169793     -3.32591558255405      0.25560965356736
  C   3.10880263547137     -2.11489623002272     -0.20303805605404
  C   3.77950024057528     -1.04019125733750     -0.65019171191663
  N   5.17211540438468     -0.91096597086438     -0.57383028943952
  N   5.71382030530697      0.15356761303818      0.03349479497284
  C   4.95358296249179      1.17740051714907      0.22473702887538
  C   0.89484491723240      3.68594491405686      0.12683952062280
  N   0.40633674847324      4.72140398156514      0.06489822177267
  H   3.35728433859434      3.34367401584208     -0.12778666307568
  H   -0.19950438755659      1.48966985738297      0.84541611198837
  H   2.33526441574625     -0.11098956627763      1.43240097635323
  H   0.13047138672448     -3.20590528054182      0.48906579882235
  H   3.66731038345008     -2.99636876852409      0.08898491207728
  H   5.74126954272911     -1.74041814949789     -0.50529174387414
  H   5.39107661521595      2.01523441869672      0.75347386280748
