24
Coordinates from ORCA-job 12674optt
  Br  3.42730206355099     -0.47352801935163      3.31626989080379
  C   3.52521890610848     -0.05854783330011      1.48825862495364
  C   2.79361988110558      0.92580346995319      0.92126792028487
  N   2.04321762596792      1.81429272827940      1.74166345811013
  C   1.09834044555555      2.46955899754525      0.99899902002112
  C   0.94483237754568      3.78290698782843      0.77437310754006
  C   0.39269356676458      4.15316743981000     -0.51786647976644
  N   0.32896574151103      3.42237847655100     -1.56601064386267
  C   0.74230528582303      2.07862776172286     -1.61087469080725
  N   -0.04412830365478      1.14296654452850     -1.93931447291849
  C   2.20389968583344      1.72485516511137     -1.49232694090319
  C   2.96485069330826      1.14334575186148     -0.53824639383556
  C   4.26161288430610      0.60911542464101     -0.98308850820035
  N   4.94410415482714     -0.29433613100993     -0.39095397913956
  N   4.46547247495070     -0.74977025729800      0.78855651515312
  C   -0.00316157574525      5.54668231713428     -0.67732874169970
  N   -0.29795184167299      6.65154526342138     -0.74979523410911
  H   2.62477135141654      2.40346791699822      2.32680832830888
  H   0.48923831767572      1.77148047909379      0.44509139884640
  H   1.44412733742560      4.54968340551071      1.35435567069684
  H   -0.98324950101747      1.51281362091174     -2.09867342701838
  H   2.67864449916615      1.79526871339068     -2.46735707225873
  H   4.67351537250255      0.96718754372439     -1.91964655074887
  H   5.05875855674540     -1.41096576705803      1.26083920054945
