24
Coordinates from ORCA-job 12685optt
  Br  1.56354109765884     -1.68036689499691      0.30691287677194
  C   2.97690864904382     -0.43052253554081      0.30048958644386
  C   2.79479917016686      0.85226149599637     -0.07003205614308
  N   1.60190016253827      1.45886976151650     -0.44618353188705
  C   0.40399931589246      1.47965318424341      0.22634395138570
  C   -0.45009496058540      2.51694396516374      0.14116741737442
  C   -0.06104120673323      3.77700524024496     -0.49687001393072
  N   1.02182522115257      4.40408839733020     -0.25274193521483
  C   1.80410227445607      4.07268886024943      0.84061655957300
  N   2.93950560621537      3.52297299158152      0.88077972790219
  C   3.76396838519326      3.11041036439693     -0.14217705060328
  O   4.45906472350867      3.83322302765526     -0.80085218888090
  N   3.90697229308967      1.68282299500720     -0.22101554384798
  C   5.22058176071414      1.12600484481727     -0.20643792429561
  N   6.29919399399017      1.67305160300709     -0.56710024285775
  C   5.24427962512876     -0.22234775147519      0.38698764076844
  N   4.21156667941286     -0.93122659475916      0.62948064908942
  H   1.73177666541216      2.22117961798329     -1.09746915745795
  H   0.14953618603921      0.58049275962960      0.76994775881802
  H   -1.46933295285635      2.39238595654672      0.48058297826761
  H   -0.72294888915632      4.21501413130890     -1.24342318278281
  H   1.37790951235625      4.40351102281421      1.78912312687653
  H   6.15682618989385      2.59660485507420     -0.96919846136148
  H   6.23016049746800     -0.61472129779474      0.61106901599233
