26
Coordinates from ORCA-job 12682optt
  Br  3.49069395809929      0.17593951527826     -1.27088475015406
  C   5.31462598935821      0.26567288620623     -1.78964799734752
  C   5.74744202609500     -0.57039356327558     -2.77195760497620
  N   5.36404167201227     -1.87317709373564     -2.68954070479907
  C   5.69354850639001     -2.33232641572720     -1.28947857656752
  C   6.64123166264985     -1.32251309395319     -0.62022889299245
  C   7.95320491307708     -1.55238031158835     -0.49521159422377
  N   8.60555562137695     -2.74509766451262     -0.82342225878163
  C   9.80670998134438     -2.82889533740586     -1.52552577704663
  N   10.52753034262783     -3.85376690284090     -1.38117079266176
  C   10.14059115560325     -1.73852484127322     -2.55823751920678
  N   11.31595694998554     -1.73760072634815     -3.01270956602145
  N   9.16885073067514     -0.78515102655534     -2.90312515727277
  C   7.99750168887745     -1.16234863493464     -3.14676977921232
  O   7.00854496509912     -0.24917676854203     -3.28724260545202
  C   6.22490209708591      0.14055945143265     -0.59233459060778
  N   6.51971828580923      1.03946553350359      0.23407586168075
  H   5.54629873562821     -2.51866877054729     -3.44380338942159
  H   6.17636614266901     -3.30572750438805     -1.36490998511823
  H   4.77155531465321     -2.44085185898805     -0.71872016699512
  H   8.60015431335838     -0.71556032430648     -0.24565329313317
  H   8.37065405252137     -3.59716129929073     -0.33565339797032
  H   11.32441831701546     -3.79915936894435     -2.01402842479436
  H   11.43776549908468     -0.98368312672135     -3.68784576152353
  H   7.68805039262346     -2.20456780173446     -3.21794335151522
  H   7.03908668627933      0.65509504919280      1.02497007611458
