24
Coordinates from ORCA-job 12687optt
  Br  3.69024094471024      0.47227743375269      2.60315691714477
  C   4.59604670003560     -0.17505895951911      1.09574368114849
  C   5.77973562326312     -0.91112361573474      1.13648191185872
  N   6.32525862704750     -1.28626509468085      0.00849447485944
  C   5.91735676165010     -0.82513580177840     -1.17765491254335
  C   7.01302333529211     -0.87348770996295     -2.16718338334856
  C   7.97686824800602     -1.73444816441740     -1.78084944910323
  N   9.35343184636261     -1.63683344951756     -1.67976851451002
  C   9.72621174620724     -2.14918749025329     -0.36687110051373
  N   9.85385045321685     -3.37456956233109     -0.11087168564796
  N   9.87956381842085     -1.14527359905412      0.58848735365776
  C   9.09765723347600     -1.00438961495749      1.58171941741024
  N   7.96610451538491     -1.75553093939023      1.87801117798528
  C   6.80445914142115     -1.03240109738434      2.27517997804694
  O   6.73721005583357     -0.41012018833553      3.28996441893179
  N   4.77916365727283     -0.14188325849942     -1.30993418716884
  C   4.11931998018850      0.12227887149824     -0.18477358616570
  H   7.16729625090346      0.00230176812354     -2.78244196737855
  H   7.63072925838376     -2.60786457638009     -1.24635090060506
  H   9.70447540093032     -0.69850671387324     -1.83608290959333
  H   9.79040463071652     -3.92779324899849     -0.96387171155262
  H   9.27523504796881     -0.19214339706977      2.28152355662602
  H   7.76931678147579     -2.42993541555019      1.14751764588058
  H   3.18003994183203      0.65509382431383     -0.28562622541907
