26
Coordinates from ORCA-job 12694optt
  Br  1.14201408309208      0.26526837233644     -0.66821118890512
  C   2.98017719484893      0.13045560488548     -0.40815759378219
  C   3.66533575962120     -1.02732637934407     -0.57264921228516
  N   3.03819007943502     -2.23842855341571     -0.92936858235701
  C   2.29151100174268     -2.97537539509892      0.09352332154750
  C   3.17357000091446     -3.97964106308921      0.83107080056992
  C   4.50326853306560     -3.39541208029652      1.32051962403320
  N   5.53944518108386     -3.33435730210904      0.29951569567293
  C   5.89644076670297     -2.29525972733139     -0.49423578141154
  O   6.78841913217068     -2.35950569821328     -1.30833934315385
  C   5.08721851246338     -1.02566239133881     -0.33731231703442
  N   5.74046455229146      0.03916894142126     -0.01513992564943
  N   5.04692570369676      1.15905791216781      0.11831545999558
  C   3.68185487597591      1.35906275645480     -0.02888665862097
  O   3.18613806095360      2.44789526821315      0.13608290973820
  C   3.38482271023079     -2.88764547958447     -2.08664272362057
  O   3.00427532366833     -3.99663536450369     -2.35979365295657
  H   1.46481168211533     -3.48333182773255     -0.40035812934692
  H   1.87794899873188     -2.23953579898124      0.78377108374865
  H   3.37915327333469     -4.82976677174761      0.17823465406974
  H   2.61239519375034     -4.35462796430249      1.68968452205723
  H   4.89184901890453     -4.00933372399228      2.13308122976805
  H   4.36067038838343     -2.39525944863526      1.73579495226356
  H   6.05378085347811     -4.18126947285121      0.10229576957784
  H   5.58740940331131      1.97545842945709      0.37331289261436
  H   4.03390971603261     -2.28699284236822     -2.74310780653301
