29
Coordinates from ORCA-job 12696optt
  Br  0.91261365118678      1.94122369368649      0.28356460996233
  C   2.70169204840843      1.40409231353394      0.03206135491665
  C   3.69108384436155      2.28799032847400      0.26682025221033
  N   5.02891486793205      1.95041164724920      0.13553185169918
  C   6.08124589824080      2.95651950424631     -0.12014190772956
  C   6.56865696719095      3.82081882481585      1.06591147693810
  C   6.48342311624670      5.32508834807569      0.77015008767050
  N   5.08830130850532      5.75666127439989      0.75064747735996
  C   4.32177915372902      5.46107115404321     -0.34761674250970
  O   4.70072878351344      5.57939497737391     -1.48795738254777
  C   2.97596081858178      4.80933540982426      0.00183178063159
  C   3.33772159171651      3.62944287454191      0.88261463030914
  O   3.44716355268361      3.74813065867431      2.07462490383129
  C   5.30586519406545      0.64662856894214     -0.20058786124412
  C   4.36692460438188     -0.28881229066663     -0.41575350103813
  C   2.94401585698310      0.01490942846973     -0.36504228783135
  N   1.97196710860187     -0.77772069863317     -0.60554195466851
  H   5.75195579941620      3.58615389849508     -0.94573818406577
  H   6.92485801775902      2.39005838542399     -0.50636543783845
  H   7.60362100918455      3.56184912106328      1.29566884152697
  H   5.98594504540290      3.59148973411474      1.95994881131815
  H   6.92183579481614      5.56454264801175     -0.19822978944836
  H   7.01765634136017      5.89347803631693      1.53030120047608
  H   4.61853805061142      5.57873225610061      1.62886646967597
  H   2.47775416888433      4.51565425150655     -0.91758740868600
  H   2.35287137188586      5.48420698292291      0.58928871931785
  H   6.35871695403555      0.41498030764473     -0.28554833073141
  H   4.67443590068971     -1.29868113091301     -0.65117981555245
  H   2.31675317962481     -1.70265050773865     -0.85554186395252
