22
Coordinates from ORCA-job 12702optt
  Br  1.38149937949842      0.54169979866186     -0.64112265423639
  C   3.13798544926699      0.12837798179489     -0.13049193083174
  C   3.71231643989202     -1.09635228908116     -0.01853817327940
  N   3.10040220210224     -2.34087142672702     -0.09312068539553
  C   1.66203144318596     -2.56782515486750      0.08806401428462
  C   0.94787917553878     -2.82378598693655     -1.24276287992923
  C   -0.49628242041820     -2.86874748486881     -1.03476441382901
  N   -1.62389384401143     -2.88875178943592     -0.83542772348076
  C   3.85254733102414     -3.50259913606066     -0.20725237602248
  O   3.33669997346337     -4.58651726892699     -0.32447666113765
  C   5.32746415952321     -3.35607303608486     -0.09967025467616
  N   5.92968446407321     -2.26686066802828      0.12421644301407
  C   5.16626682007923     -1.10044854620168      0.18208016774335
  N   5.87785771905977     -0.05067315217682      0.38064613085847
  O   5.26398467980096      1.14390936800874      0.41486656141225
  C   3.93259881121991      1.33499155754128      0.11964676520217
  O   3.52533051403827      2.45244256204370      0.10128105948353
  H   1.23576923843230     -1.72338051779105      0.61425546589308
  H   1.56723615250924     -3.45176974335671      0.71563712865364
  H   1.28285929846529     -3.77294837808307     -1.66140008652630
  H   1.16945256785518     -2.03032316588749     -1.95655132091620
  H   5.88731044540114     -4.28349352353587     -0.17311457628432
