24
Coordinates from ORCA-job 12706optt
  Br  5.71417604936262     -0.56008131733713      1.57924561449139
  C   4.91441430097127      0.06746960705638      0.01691327191143
  C   4.70703417500634      1.37025294729225     -0.26486801554431
  N   4.93735785227289      2.56004486583714      0.35015733684475
  C   4.44067610314366      3.42323711428803     -0.51603196484601
  C   4.34124064007161      4.87870600092730     -0.23587380980945
  C   2.88831323258900      5.22876690417886      0.16712741770443
  N   2.50854501673146      4.68259976322288      1.44105050528081
  C   1.98453372266717      3.44107793455173      1.56641775578470
  O   1.83983584248842      2.66472486273776      0.65005780870095
  C   2.75806564138898      6.73334176778115      0.20361834305308
  O   2.49463698311049      7.35136536438175      1.19569240979159
  N   3.91674481076196      2.93902380320942     -1.70193972943782
  C   4.06549203976152      1.66245804979537     -1.54054020587770
  O   3.70837786222605      0.73288764520950     -2.40305037507522
  N   3.91469291484753     -0.58495226722552     -2.10412364888766
  C   4.47198067268941     -0.86799896943863     -0.97617058448938
  H   4.60134589147804      5.43199330621367     -1.14095532351537
  H   5.01743317007841      5.14896198439773      0.57404217590411
  H   2.22219020615613      4.83646785968481     -0.60976016944481
  H   2.49656736120853      5.31724879477110      2.22629237115306
  H   1.69828664943540      3.20283812440581      2.60167644525906
  H   2.95333145299408      7.24203763581497     -0.75740855937450
  H   4.59972740855901     -1.93047178175637     -0.81356906957712
