24
Coordinates from ORCA-job 12713optt
  Br  1.77040107464581     -0.06450689000322     -2.42680172814476
  C   3.15598075359629      0.36203844238792     -1.22133878344151
  C   3.85037715838293      1.52384605800014     -1.27794397055241
  N   3.21104250856333      2.67907686148989     -1.81069708058888
  C   2.02185686174683      3.00746392310346     -1.16326322534073
  C   1.86099055911589      2.71057658089529      0.13777041314502
  C   0.59548051792458      2.49932633480674      0.82884174870561
  N   -0.42564716555581      3.23019510323546      0.69193061369662
  C   0.41834540554538      1.18942126234750      1.67435663722170
  O   -0.65248020784904      0.90563844841797      2.10199694603864
  O   1.42522993891351      0.25524773202871      1.83906060211986
  C   2.75549650027043      0.58114474201459      1.94241514286535
  C   3.65529830705491      0.22442137209771      1.02881662652746
  N   3.29614270791087     -0.48366796144844     -0.15387615309748
  C   4.93052176656968      0.95194838004191      0.84212030968587
  C   4.94854008850349      1.63817978555841     -0.30953028602560
  Br  6.37312287601203      2.79046789927273     -0.76459951514450
  H   3.28193103360125      2.87842659957918     -2.79452813887520
  H   1.22607874274968      3.41612622154917     -1.77571795703610
  H   2.74028321525558      2.38582553309948      0.65901696248898
  H   -1.21741084703767      2.82845526136898      1.19794775051839
  H   3.03752954224356      1.16759416102575      2.80978672093155
  H   2.66895758812696     -1.26982260412078     -0.08513467428378
  H   5.71893107370949      0.99957675325142      1.57937103858591
