24
Coordinates from ORCA-job 12717optt
  Br  0.95764858599727     -0.03945435088555      0.82409290613664
  C   2.77443940054762     -0.03170398475100      0.37432399274485
  C   3.44545138388208     -1.17469523117367      0.11904536439110
  N   2.80761515260224     -2.43162249792092      0.00528508890720
  C   3.51489998079064     -3.56035382420728      0.44522122175414
  C   4.83650694102084     -3.51809773276667      0.57513010339357
  C   5.60529698110947     -2.33996226685645      0.18443958497745
  N   6.86508588113661     -2.26932566163957      0.06614600325091
  N   4.82944269135790     -1.18037997233051     -0.06417452841433
  C   5.48216985193317      0.03483174464195     -0.18405896993781
  C   4.84526094030550      1.20072256177586     -0.04910972811655
  C   3.43374070616719      1.28157335979628      0.30838340281922
  N   2.77720882962069      2.34788214903258      0.55106183829769
  C   1.76851848488402     -2.57384743042816     -0.91978169196936
  O   1.47032960581235     -1.74285715035299     -1.72940576777336
  C   0.89048545156725     -3.83575044206738     -0.88395465892223
  O   0.85759891457548     -4.65128200659099     -0.01433898879313
  H   2.92154888841401     -4.43691568603086      0.64870346102986
  H   5.38070538875285     -4.38046496167889      0.92997020507816
  H   7.29595225948591     -3.16370489792321      0.27830714675523
  H   6.54065343015480     -0.05622529091973     -0.36980461006105
  H   5.40023745901608      2.12167569156565     -0.16531448425543
  H   3.37581351395104      3.16560817355960      0.44937894707679
  H   0.22938927691491     -3.85665029184808     -1.76554583836954
