22
Coordinates from ORCA-job 12729optt
  Br  3.57608899605600     -1.61618716064846     -1.58469871322064
  C   4.89822426149167     -1.33378282035363     -0.23848396760068
  C   4.47768938802856     -0.87339490869125      0.98796035075385
  N   5.36609497225652     -0.33635368352069      1.89856148217777
  C   5.81905990614798     -1.27877546681266      2.86170993633418
  C   7.08517865226328     -1.67803189697192      2.87347185376343
  C   7.40533703079738     -3.07349807349071      3.25059810606314
  N   7.14071666035270     -3.67964861737730      4.32584187865507
  N   8.03113140824241     -3.82290289816326      2.21332667158228
  C   7.85640664781277     -3.62985340213875      0.97140888707306
  C   7.02820232407673     -2.62904352124010      0.23394187318456
  C   5.70197154555453     -2.50826394050901      0.18018986512689
  S   4.61157569079233     -3.70076273959307      0.98518178698475
  C   3.17019834897373     -2.69839487549644      1.43720637214959
  O   2.15648210435041     -3.19253688414240      1.76812671856374
  O   3.31423175853767     -1.29680761405559      1.51583618208757
  H   6.12753621949805      0.12251949426778      1.41287515308432
  H   5.03294435363995     -1.81739052669417      3.37466311462981
  H   7.81866426395503     -1.15234227834691      2.27158514253228
  H   6.72150603506191     -3.03978893008835      4.99927669573402
  H   8.46671165495319     -4.25667401842751      0.31731258241169
  H   7.59904777715715     -1.92408523750557     -0.36589197207068
