27
Coordinates from ORCA-job 12728optt
  Br  1.09400165954857      0.34756675144676     -0.42930600181987
  C   2.95483428530892      0.16553371135214     -0.27368193249699
  C   3.57855916275116     -1.04912481823360     -0.36505339202198
  N   2.76649199043076     -2.18157620554657     -0.62138547594456
  C   2.14817573193483     -2.91392418267033      0.47740973190856
  C   3.01041599289915     -4.03826458377298      1.09761584100147
  C   4.38279398485792     -3.45525192930150      1.28543193842567
  N   4.78622798296197     -2.78006476186816      2.28135286808181
  N   5.15523956888460     -3.50502660865136      0.13680825169768
  C   5.86578059571340     -2.30252071872073     -0.22424944119877
  C   5.01383701219406     -1.03443671672582     -0.21969987529683
  C   5.68100355418125      0.15632161502116     -0.07824234033582
  C   7.10815627513322      0.19124850934308      0.00201448164319
  N   8.25497827710374      0.18162735148030      0.04411915533645
  C   5.00929837394347      1.44128788665065      0.01338135070032
  O   5.52351959427266      2.52612485114908      0.15120612604965
  N   3.61963032746165      1.31931152725685     -0.05728838020757
  H   3.07945335841730     -2.75474631653660     -1.38836988266381
  H   1.19881149782337     -3.32667350278124      0.13138267168966
  H   1.92093855988727     -2.18135188217094      1.25332583570563
  H   3.04259500837777     -4.90517098917336      0.43253921216411
  H   2.57770479389053     -4.35670446471671      2.04561094984267
  H   4.10384161046271     -2.79462103810396      3.03392455078917
  H   4.73269978500281     -3.99782817558770     -0.62991949471553
  H   6.31178948174258     -2.43451243055086     -1.21198125743906
  H   6.68560543275587     -2.14726492629422      0.47514398328686
  H   3.10761610205841      2.18804204770667      0.02191052581788
