25
Coordinates from ORCA-job 12722optt
  Br  0.83806888482599     -1.25299970543154      0.09529850706137
  C   2.32661185030222     -2.19241539483763      0.74173075092688
  C   3.55753612263617     -1.97702898354700      0.18500007716709
  N   3.89107024755526     -1.11710416040740     -0.81812153240115
  C   5.18225335650005     -1.28898893079705     -1.00342259595215
  C   5.77856910077423     -2.27256562317085     -0.14944589437744
  C   7.18197926663644     -2.72076749564319     -0.12617684098724
  N   7.58569754159793     -3.90778280201501      0.12913089407008
  N   8.09541450785511     -1.74942206856708     -0.43995935175704
  C   8.09357154008853     -0.36035334873486      0.05194034781918
  C   9.63537106990326     -0.38549671657022     -0.01149117278962
  C   9.53251601000182     -1.91306607717682     -0.20197908028257
  C   4.73330984790038     -2.71509541752459      0.62404133654872
  S   4.66233120833332     -3.86266980865895      1.87969223454743
  C   3.00180131135393     -3.77715336696320      2.28092076732740
  N   2.07565620727097     -3.05329959759086      1.75050189565058
  H   5.71262360778811     -0.73369102292930     -1.76633132741414
  H   6.80575854970895     -4.55210368377808      0.22109375424986
  H   7.69777156438681     -0.27459331214892      1.06737727509894
  H   7.58503436171315      0.35447406129938     -0.59384730787719
  H   10.15789832084263     -0.04370544321146      0.87692083532679
  H   10.02586039581326      0.12683553827899     -0.88707182997831
  H   9.72722688305480     -2.49450017381943      0.70180280519415
  H   10.07448746792417     -2.35769142266270     -1.03480032943355
  H   2.73258077523244     -4.44281504339219      3.09519578226191
