23
Coordinates from ORCA-job 12721optt
  Br  1.01337406971848     -0.18529276616984     -0.36266201162123
  C   2.90122947609363     -0.07599603795298     -0.23143247580428
  C   3.62773903649976     -1.23758223438359     -0.20151534231693
  N   3.03578297820367     -2.47011218965524     -0.27185210950398
  C   3.72711902031832     -3.64422827326517     -0.05587468931236
  C   5.06792725081176     -3.63773492155577     -0.03348360748630
  C   5.77313632076634     -2.39586779464644     -0.32163839679517
  N   6.93385408184796     -2.26991693488682     -0.79313037616482
  N   4.99803374177340     -1.20415194095401     -0.07205095793288
  C   5.68945029122137      0.00426301763403      0.32304270097256
  O   6.80938093397834     -0.03830443565233      0.75229245341613
  C   4.89962415940224      1.20445767187911      0.16355729878064
  C   3.57004893359726      1.16737054762256     -0.08927158512623
  C   2.84279486593938      2.47615092137394     -0.22207559753886
  O   3.32284050685701      3.52246743009350      0.10861531589204
  C   2.92828491138124     -4.81618006310240      0.10347717557007
  C   2.23350720041693     -5.78263665589503      0.23172222527875
  H   2.02837495513541     -2.49452291255357     -0.30876092218106
  H   5.62778631941317     -4.55014212282375      0.09723512782340
  H   7.37140110369622     -3.18166473561140     -0.90803398327761
  H   5.40753304085449      2.14910656975480      0.29731643971302
  H   1.83473572608733      2.42653135281901     -0.66225980045780
  H   1.62304107598625     -6.64701349206858      0.34878311807290
