26
Coordinates from ORCA-job 12735optt
  Br  1.49152100438353     -0.58354474477819     -2.00465822195859
  C   2.77499381417738      0.11511889753506     -0.82327439217988
  C   3.61932237511924      1.10729825152750     -1.17818713602967
  N   3.23008717528405      2.01470021142550     -2.19458378293377
  C   2.05040320620341      2.70339367261481     -1.93060067563019
  C   1.70586818889992      2.99768093140334     -0.66732531375764
  C   0.34514488049921      3.23168030603086     -0.18260892741761
  N   -0.51373009249081      3.88758285071552     -0.84678573485457
  N   0.04419783949413      2.61491455562441      1.07640708059370
  C   0.62727891540553      1.42054873710207      1.59394044979448
  N   -0.00592632962564      0.33206244090049      1.75154213768772
  C   2.05770060094480      1.52956725382227      1.94543006314394
  C   2.97797997421387      0.77342671982004      1.34058642821870
  N   4.32083653341739      1.14154610681742      1.14664233923670
  C   4.62950633544296      1.54249450536705     -0.17022361541850
  O   5.59589362859831      2.21374751305338     -0.41685417298347
  N   2.65806027986680     -0.30739914186774      0.48476112144797
  H   3.51808469827473      1.87688275335471     -3.14770123035144
  H   1.39630327152325      2.90666314462372     -2.77129410789691
  H   2.44899274415397      2.85394984754032      0.09501149911508
  H   -1.43595548446689      3.88633637683133     -0.41436920334236
  H   -0.95155373962452      2.64218925825181      1.25684293469600
  H   -0.94974321212497      0.38290122204601      1.36850300113532
  H   2.37856403912631      2.42189487311899      2.46718706066455
  H   4.77901935461297      1.70626829463798      1.84972405219097
  H   1.80014999869099     -0.79390483751869      0.71488834682950
