29
Coordinates from ORCA-job 12738optt
  Br  1.09742358003070     -0.28783303190454      0.17182190147351
  C   2.96017767746415     -0.12438746159229      0.03447868899553
  C   3.79268404951574     -1.15139769893760      0.25634824334477
  N   3.55267288469358     -2.47698681709362      0.64928093633401
  C   4.74332715665365     -3.25676036082783      0.27157078853260
  C   4.84973063555059     -4.48456384350157      1.15938938990981
  C   5.97125647749165     -5.43301879732831      0.80491384467227
  N   6.76763953405802     -5.35713238385314     -0.17618976500555
  N   6.14514954933886     -6.52361204526077      1.65477307759493
  C   5.42123198721193     -6.87922710499673      2.76174082577233
  O   5.66253575732698     -7.85959820295951      3.41502244865297
  C   5.88476633481798     -2.23152660912694      0.42982318615603
  C   5.20307747859010     -0.92556107534195      0.11327481676865
  C   5.70034902380169      0.27009802006092     -0.24295533594570
  C   4.80859332954131      1.39925867764568     -0.49147489483013
  N   5.11238256550005      2.59004127217429     -0.84503974508705
  N   3.45794213814514      1.10562091632830     -0.31454318241812
  H   2.67083536777032     -2.86217186961317      0.33593087327267
  H   4.68026686444995     -3.56054517605102     -0.78204753589286
  H   3.90608275105958     -5.03773673258241      1.11976973892549
  H   4.96425863721598     -4.14780006724766      2.19279151406964
  H   6.58153542968931     -4.54849480642671     -0.75839118549995
  H   6.90212143429243     -7.14693650630622      1.39914459199255
  H   4.59780643504195     -6.19446465455325      3.00499523549191
  H   6.74669062216856     -2.42922292364428     -0.20364055631306
  H   6.22488466258873     -2.22217753811693      1.46992309957194
  H   6.76236440774645      0.43816834575899     -0.36466864145281
  H   6.11696442450774      2.69387310302702     -0.93855209114683
  H   2.82424880373684      1.87209537227131     -0.48749026793958
