27
Coordinates from ORCA-job 12732optt
  Br  3.72195565733079      0.45911974842715      2.47170020053342
  C   4.75792483771817     -0.30318091567761      1.13059072509463
  C   5.92511967924750     -0.95837606098282      1.28992958647051
  N   6.54553482425159     -1.45752867761239      0.17236828137242
  C   6.10419348795054     -1.27754945504053     -1.00611549156051
  C   6.94529823308056     -1.80278819921681     -2.14808184524340
  C   8.17189300731707     -2.45684325863204     -1.52965240293953
  N   8.37130476953546     -3.70461104089941     -1.44598418244471
  N   9.03960893742919     -1.55992272262761     -0.93203573449578
  C   9.52307943865428     -1.82891804235316      0.42309077242094
  C   8.93242823543032     -0.87409215190122      1.49286742104010
  N   7.99085571000796     -1.43352835522141      2.46326771332810
  C   6.63783439325979     -1.24677917522251      2.57135344819818
  O   6.05103824353845     -1.37560473199532      3.62329201813333
  C   4.85137702956929     -0.54069607238619     -1.24423713727082
  N   4.28025835645927     -0.24604136864722     -2.32184912329451
  O   4.22381646408505     -0.12207526127698     -0.08218762070553
  H   7.22325571963450     -0.97304390075554     -2.80855627512979
  H   6.38421808835229     -2.51981750667853     -2.75068327090371
  H   7.62426595344154     -4.23035850115049     -1.88810125775831
  H   8.76745191682615     -0.59758044353561     -1.06129568516651
  H   10.61011975311603     -1.73660012054886      0.43890053090239
  H   9.27511696576310     -2.86266984421792      0.65797018934241
  H   9.75768918153934     -0.46986392088903      2.08094283845311
  H   8.46820688524235     -0.01605969189582      1.00287344640126
  H   8.38440335841034     -1.68794023369112      3.35735097192823
  H   4.79775087280897     -0.60365009537096     -3.11971811670590
