26
Coordinates from ORCA-job 12739optt
  Br  2.82738901850424     -0.68991257223650     -2.16377510605853
  C   2.57230725271518      0.15378599002379     -0.52371205100424
  C   3.02006655035333      1.54822798393911     -0.10577717339188
  N   2.82575644761864      2.64761677107086     -0.93695635977995
  C   1.63432634593452      2.87243171828261     -1.71861657899766
  C   0.54392870836925      3.70098289619615     -1.01223134504955
  C   0.24901402912504      3.04057561888632      0.30288711487085
  N   -0.49554766307242      2.02580500478079      0.34827711870710
  N   0.96909635385659      3.59249008470727      1.39059977421147
  C   1.62943134746131      2.93024645747242      2.39284686295446
  O   2.17231475950309      3.46101858488444      3.30839729527485
  O   1.59183519722514      1.55877132209269      2.23586432304408
  C   2.47543744192043      1.02986839230202      1.32787462707613
  O   3.84277496422508      1.05938979387913      1.82765792373439
  C   4.34286260263522      1.52670223516708      0.64265032835071
  N   5.48680936083324      1.90163544002163      0.32259316992522
  C   2.13227937768993     -0.26870280855696      0.65840793973834
  H   3.46907163415806      3.41115210494641     -0.80368762331415
  H   1.20650267269339      1.89988971260736     -1.96816657128576
  H   1.91157582435427      3.36291389697139     -2.65271296441553
  H   -0.35656085069052      3.70688093143104     -1.62443167421325
  H   0.88534697449675      4.72907004094480     -0.87427429695988
  H   -0.56132049481384      1.63003538466489      1.28343344189405
  H   1.15894883933331      4.58354667281337      1.37460357973687
  H   6.14822701113391      1.80995425982991      1.09316739886300
  H   1.82112629443683     -1.22637591712207      1.04508084608888
