26
Coordinates from ORCA-job 12730optt
  Br  1.28567042073763     -0.45660164931930     -1.06820627189437
  C   3.00009764398392     -0.16412644045486     -0.35098498563297
  C   3.57015782880373      1.06179275782082     -0.22741340701620
  N   2.91425289129224      2.29135769648923     -0.33111905811848
  C   1.51308953252430      2.48340685667144      0.04869286053026
  C   1.35730810126727      3.77187520804703      0.86201140761881
  C   -0.01947066045752      3.90724982830794      1.33054768698979
  N   -1.10345237225442      4.00012819735327      1.68838543057648
  N   3.52537986044433      3.41528316202856     -0.72663785712599
  C   4.81170065781684      3.43787817861660     -0.78969012870735
  C   5.61042914617134      2.33896723237970     -0.34174403847834
  C   5.00329810596333      1.18618627101366     -0.00529066377258
  C   5.75577783238922      0.00484402894615      0.48754426797769
  N   6.93534186675647     -0.00812353297076      0.95782233076964
  N   5.06345130488811     -1.17826705209573      0.40599122557045
  C   3.75764472173532     -1.38184281701779     -0.03772078620389
  N   3.22915550894231     -2.53176210224801     -0.15082289574875
  H   1.21916949203451      1.63207171138655      0.65495923121531
  H   0.87212323169967      2.50870538510047     -0.83262123633597
  H   1.61247612976342      4.64131439450722      0.25937214949966
  H   2.02291255218176      3.75706674300227      1.72696259566167
  H   5.25335482354801      4.36444219616999     -1.12884811318357
  H   6.68457609256689      2.45004513504881     -0.27871614237024
  H   7.33970468961007      0.92052814870346      1.00561106522744
  H   5.57523713907739     -1.98700307736126      0.72987611520553
  H   3.87761345851381     -3.27641646012550      0.09503921774595
