24
Coordinates from ORCA-job 12731optt
  Br  2.56659233682954     -2.34276161911929      1.06868742310671
  C   3.30369372058969     -0.77097967547505      0.38721136948243
  C   2.68621693430505      0.42209551607299      0.40135571650019
  N   1.44261318106081      0.54618903903039      1.07924241476496
  C   0.73781016527991      1.61753482634185      0.53798571993711
  C   0.50173134191387      2.80308368697707      1.08673793297401
  C   0.36281036605519      3.97496783623959      0.20201539437939
  N   0.04473541997656      5.15207829292415      0.54412869147870
  N   0.72036512413677      3.74133320259287     -1.14804483347950
  C   1.80105077764695      3.18981272656506     -1.48920464839628
  C   3.05759510118599      2.75199806160527     -0.75776507356165
  C   4.12038321009012      3.76973407396193     -1.03194354048229
  O   3.91578253079060      4.72562934025529     -1.73536733880699
  C   3.44313783239312      1.57857338671571     -0.17125005283806
  N   4.83914843922727      1.38091342621230     -0.08294966164242
  C   5.31146328388940      0.21997222359940     -0.05435549331126
  O   4.58443197212472     -0.93128884235287     -0.02048094738295
  H   1.57039265153865      0.59475183139282      2.08475656620503
  H   0.54192180471060      1.46546557783492     -0.51356046252303
  H   0.65871323850123      2.98904294685978      2.14359946100784
  H   -0.20750676223224      5.17825587387107      1.53016949009318
  H   1.95045119816920      3.07835474960413     -2.56581907313978
  H   5.08148625832449      3.62550711441004     -0.52509471902587
  H   6.37397987349247      0.01273640388055     -0.05405433533951
