22
Coordinates from ORCA-job 12741optt
  Br  1.14394523279002     -0.15919073490618      0.08361949316009
  C   3.03066276255135     -0.15297031079102      0.09046619422699
  C   3.72357009281906     -1.37728350985053      0.19443887068345
  N   3.02155464744828     -2.58543908910948      0.30045297881871
  C   3.67903838468460     -3.64950403443025      0.10960228136200
  C   2.98807184156003     -4.98547077569941      0.06320115573812
  C   3.52787453289402     -5.91420878261153      1.05624321436026
  N   3.94692948679032     -6.63837530314023      1.83782376425357
  O   4.99685871896225     -3.75402877088542     -0.13421219350551
  C   5.82270118991608     -2.68050617700188      0.32686679067589
  C   5.11492458159467     -1.37129833029719      0.18060034098627
  C   5.73723884126331     -0.14165790090342      0.06883857839960
  N   7.06644649980953      0.26181580134310      0.02538890029037
  C   6.98337299994098      1.53820318118221     -0.07632552340943
  O   5.73426159241316      2.06572656555612     -0.10573955160313
  C   4.92106777795871      0.97978448124249     -0.01444052415931
  N   3.61372505769282      1.02584576193576     -0.00969474038399
  H   3.12699024342797     -5.42259190425877     -0.92868890822877
  H   1.92561615284545     -4.83054310493313      0.23656250440579
  H   6.73406418030144     -2.70921872197563     -0.26547471068563
  H   6.07904300732863     -2.86669174213087      1.37470241193698
  H   7.79604217500728      2.24360340166530     -0.14523132732233
