21
Coordinates from ORCA-job 12746optt
  Br  3.21959336459836      1.41734284581021      2.93376589502774
  C   4.03828679636423      1.14619424773870      1.27072356690466
  C   4.88453037913770      2.00666999066666      0.68269425029897
  N   5.48038432319262      1.56679251448648     -0.53110803835754
  C   6.24062390137419      2.56069900751835     -1.19279104330592
  C   7.54634931184661      2.53792968656100     -1.41151686882879
  C   8.27464410178272      3.82804532373922     -1.48780808072940
  N   8.88952268509033      4.30058787760553     -2.45939025282418
  O   8.31705052964304      4.44575847424401     -0.20752960617714
  C   7.10367805896973      4.68185215546023      0.41498514658627
  O   6.48494393971298      5.67654722947365      0.24035608373437
  N   6.69958780894841      3.60911323359130      1.21201864538077
  C   5.30395501069150      3.33171728401088      1.28535327541144
  O   4.51321485035380      4.10956393398620      1.71527304594580
  N   6.16545465465318      0.31862300028926     -0.43909383082356
  N   5.56753251844874     -0.62787075787134      0.01342935120195
  S   3.89144472830370     -0.41740667829355      0.54792741604590
  H   5.65837172753238      3.46250771198166     -1.35556325461153
  H   8.13942555282850      1.65307061692594     -1.21709330273798
  H   9.33202191692162      5.18952680887468     -2.22492805476581
  H   7.29338383960548      2.79873549320087      1.10829565662400
