26
Coordinates from ORCA-job 12744optt
  Br  4.18593143367378      1.36644967972223      1.65072115312475
  C   5.14579847368309     -0.28812756856221      1.89783747968685
  C   6.51740510620284     -0.28525093834620      1.76051752311672
  N   7.00790199094126      0.35413512271733      0.55556225294866
  C   6.52798562799724     -0.44324808833134     -0.32708936482933
  C   7.10306872346892     -0.50004847977694     -1.71322654965296
  C   8.06234198759120     -1.67375098252618     -1.80306871294506
  N   8.09529529927639     -2.44511208626983     -2.79026508626815
  O   8.84119038746547     -1.71434564697318     -0.68239343811080
  C   9.60606447614000     -2.86781263929282     -0.38282424150589
  C   10.19308431271503     -2.66022613789088      1.00488610845316
  O   9.16681910901454     -2.53627139614880      1.98681963684360
  C   8.46481396451624     -1.40654743210292      1.87482076968156
  N   7.23784684099191     -1.37314296303427      2.19839507188922
  C   5.44896589935288     -1.54825451890158     -0.02581620205859
  O   5.28719077089738     -2.45983510327978     -0.79081294902003
  N   4.71093230758679     -1.36257146594795      1.13935573288191
  H   7.65748533994662      0.42369365978937     -1.88294241973214
  H   6.34403693301888     -0.63953741647368     -2.47821434295398
  H   8.80367509159435     -3.17185460603135     -2.72017260427855
  H   10.42198492830095     -2.99657669183812     -1.10121609139035
  H   8.96241595016148     -3.75189761335366     -0.40159690819787
  H   10.82751695110237     -1.76943242733345      1.01247201408811
  H   10.78668228472463     -3.52508386949807      1.29165773270661
  H   9.01217879843245     -0.55915531099897      1.46418877081012
  H   3.84338701120319     -1.87419507931673      1.25140466471243
