22
Coordinates from ORCA-job 12749optt
  Br  2.46100741141202     -0.34383906519116     -3.54655435682583
  C   3.20486384754198      0.18862520290893     -1.90689449528777
  C   3.52871132214835      1.46103225349154     -1.63590132135417
  N   3.00459152463406      2.58911888306377     -2.36240171073714
  C   1.81808591225537      2.81654541961868     -1.59469238151948
  C   1.78378203448428      3.52100776094727     -0.45242284854179
  C   1.02058540824625      2.83346815775090      0.56691155102609
  N   1.59880801545564      2.61067612839704      1.69092174656835
  S   1.11277025655892      1.23485982928681      2.47557093363874
  O   -0.28837128989473      0.98735558835332      2.29206431839073
  O   1.68378208152509      1.22938347132015      3.77768920070736
  C   1.86725473224028     -0.00670266444775      1.41113411256412
  C   2.95212187159856      0.10145235179652      0.65239020868022
  S   3.31144584508314     -1.04855018457544     -0.65487445280868
  C   3.94631404245586      1.20965162855663      0.60182786236142
  Br  4.88314927494473      1.59069950860075      2.18751887684449
  N   4.21862627073960      1.81765823222502     -0.46852803383304
  H   3.65509200709626      3.36269818299400     -2.24760302421537
  H   1.01499050924883      2.13106213190453     -1.84760369493328
  H   2.62769052631522      4.12132587474256     -0.13621173099964
  H   0.10163423921247      2.31508763764780      0.27742396003956
  H   1.20206415669780     -0.85561632939186      1.30323528023513
