23
Coordinates from ORCA-job 12747optt
  Br  0.88019765339563     -0.09199318209802      0.24067793360253
  C   2.73009706431000      0.05269161017830      0.10943738404303
  C   3.39187601368957      1.22124388456389      0.00595764776477
  N   2.85295102740988      2.49737757422046     -0.02702413260672
  C   3.77091668930730      3.36843519920297     -0.15006627602283
  C   3.48289897300720      4.84400683832497     -0.14109017470216
  C   4.35282135110859      5.61393678063364     -1.02875974278178
  N   5.04383517073143      6.21895577961190     -1.71234431010310
  S   5.44119830363678      2.78152156601311     -0.25695748708498
  C   4.83242294324579      1.15392211369975     -0.10596893188959
  C   5.50917225541690     -0.01033337633729     -0.10034095832947
  C   7.00254104621073     -0.10911847837111     -0.24939607628703
  C   7.66589688274565     -0.48820650098305      0.99978551886013
  C   8.18148792067800     -0.80603145786975      2.03187488041557
  C   4.75115119609812     -1.24664859621963      0.07513122373072
  N   5.15586647897294     -2.43236515468147      0.18274192003689
  O   3.35811891673860     -1.11310824787024      0.12607092742693
  H   3.61037632789345      5.22851057084465      0.87452761450985
  H   2.44080328954311      4.98839971872376     -0.42486460162460
  H   7.40178928186333      0.84573710200122     -0.59736395116539
  H   7.24186342224610     -0.84711338018865     -1.02150033502304
  H   8.64241872285150     -1.08834686137885      2.94836320840101
  H   6.16929906889927     -2.48647350202057      0.17510871882924
