26
Coordinates from ORCA-job 12757optt
  Br  0.93205858363895      0.28465115922452      0.24949154493012
  C   2.79779534877434      0.33152713086020      0.06810999901254
  C   3.51841765397154      1.45969953076776      0.30158044615965
  N   2.89726490808885      2.63590031063566      0.73350582547168
  C   3.30403668128317      3.74103151773680      0.26480264009949
  C   4.36827592329872      3.90494440772024     -0.77993154672159
  C   5.74170932751857      3.54463545556235     -0.22533934074085
  O   5.73573895810362      2.36226299138984      0.56952361697946
  C   4.95305311908229      1.31965095089385      0.18272336550110
  C   5.54017836480471      0.15495255638867     -0.18417154666900
  C   4.76121133392958     -1.02405364200027     -0.47835233380566
  O   5.18145072974124     -2.10593365445652     -0.83808037065886
  N   3.38445948526523     -0.83351014680475     -0.30696529498110
  O   2.77321934844539      4.90191311234069      0.66433058602493
  C   1.72685254163290      4.80141351894711      1.63430101519475
  C   1.18827888296485      6.13403676503099      1.87262718709990
  C   0.72216468295387      7.21407224843027      2.08763495203253
  H   4.38116968795616      4.92929997812751     -1.14660142719348
  H   4.12006296225276      3.24195387982603     -1.61211404833413
  H   6.10478567623911      4.32624406709996      0.43984769231721
  H   6.45289209216252      3.42139492411125     -1.04655256230323
  H   6.61535138580988      0.07701609396162     -0.24564647290038
  H   2.81022684912952     -1.64587097223880     -0.48531150764940
  H   2.12548599120612      4.36790158788955      2.55338964293917
  H   0.95311437120956      4.12765118032694      1.26233766354773
  H   0.30774511053652      8.17621504822846      2.27386027464741
