25
Coordinates from ORCA-job 12759optt
  Br  1.21156643507126      0.40471193003029      0.01043781866872
  C   3.10437526834674      0.21825249280920      0.04005242548104
  C   3.65676495877307     -1.07892733377085      0.04134324691802
  N   2.90946789349578     -2.22191503012574      0.02488013980822
  C   3.56675996499905     -3.44833339271553     -0.39894411307364
  C   4.86267257696636     -3.61767902275247      0.37823123223719
  C   5.77100169228454     -2.41696870410385      0.20229035381184
  O   6.96744351120221     -2.50095229378503      0.19212402540776
  C   5.05665960506671     -1.09732286191858      0.09510721732250
  N   5.78693630502206      0.01646559066164      0.11029571557848
  C   5.15373200215404      1.16716203986179      0.07971480448372
  C   5.95358609143589      2.43121239109197      0.03726860948604
  C   6.12009150497629      2.93829504313106     -1.38475605169040
  O   5.76572546056690      2.32845419653996     -2.35624122358969
  C   6.76241926750629      4.24724661683098     -1.48701668232882
  C   7.28620592659572      5.32383715354916     -1.51900964366027
  N   3.81569408034333      1.30065159904897      0.05703240718770
  H   1.94197683045383     -2.10282748189387     -0.23579402743649
  H   3.78344851001905     -3.41708193246232     -1.47462017412675
  H   2.89377344955136     -4.28302209132326     -0.21248868242243
  H   5.40473468601994     -4.51087605272399      0.07388365240956
  H   4.63670708296316     -3.69831763827268      1.44661271408357
  H   6.95142178472510      2.26344444465175      0.44735266692344
  H   5.47278097376860      3.21710719094864      0.62233525239889
  H   7.74905413769253      6.28138314669275     -1.57009168387819
