28
Coordinates from ORCA-job 12751optt
  Br  1.33774276327090     -0.08806478360324      0.18280225343481
  C   3.23921440760419     -0.18385911250550      0.01175492040294
  C   3.86538412165452     -1.43494136832699      0.11328600410273
  N   3.17117333723143     -2.61796174047474      0.37296478493958
  C   3.30547133800846     -3.72296466361363     -0.56196278001944
  C   4.62560363851341     -4.48075001696979     -0.37867273161772
  C   5.84825304262266     -3.62592781173742     -0.72129578315199
  O   6.02100192151785     -2.56440890157313      0.19774399759106
  C   5.26571647046731     -1.44183849748613      0.01078414011029
  C   5.91847742851083     -0.23871455599131     -0.17900532416434
  N   7.26978359563035      0.01565604620504     -0.33817105295132
  C   7.46548536158185      1.46135338942743     -0.10919075312915
  C   6.11062914448475      2.08309141026443     -0.49694254685761
  C   5.16977037631561      0.93251833016649     -0.25262644266831
  N   3.85683220416104      0.96470950293210     -0.15956270523192
  C   4.63266725343177     -5.65449989443344     -1.25333422932279
  N   4.64501170817342     -6.54359022734362     -1.97581555885297
  H   2.20042929314676     -2.42927444588617      0.57841969347504
  H   3.23693103702630     -3.39125289978781     -1.60609323476484
  H   2.48196974221598     -4.41131495405667     -0.37749390366259
  H   4.70843441985266     -4.81080099178188      0.65940802094365
  H   5.75424830669487     -3.23452970728992     -1.73931727752281
  H   6.75209017572625     -4.22950343162405     -0.65984179728734
  H   7.90318951451513     -0.61573644610933      0.12966434948531
  H   8.29261749270750      1.83414480948453     -0.70889726367053
  H   7.67782830965482      1.65835543578770      0.94658016397630
  H   6.09349396744703      2.35638031337049     -1.55526207660195
  H   5.86354962783225      2.96672521295658      0.08707713301593
