23
Coordinates from ORCA-job 12765optt
  Br  1.22329087819073     -0.46056291785650      0.30638238785331
  C   3.06738645339023     -0.17899965804979      0.20429849491178
  C   3.60356461915867      1.07027847866915      0.03447737423939
  N   3.06071116558379      2.30624347462723     -0.10078930859334
  C   4.09918540808393      3.12471115260316     -0.23324768801726
  C   5.37239857729462      2.48725932882354     -0.19091955398734
  C   6.75327476421054      2.91291076373632     -0.26114570075562
  O   7.65647182830451      2.08538476621825     -0.15599387222303
  C   7.10022768325305      4.32378903907565     -0.45721944444159
  C   8.31723166371406      4.92594639725497     -0.51947438163852
  C   8.06569774914147      6.31051034321969     -0.72723687513292
  C   6.71606716685389      6.43991812344077     -0.77643444223656
  O   6.11566424835001      5.24720635428805     -0.61408162648437
  C   5.03990424839298      1.14098356856808     -0.01561170963409
  N   5.77047242793193      0.03257144791320      0.09906993475672
  N   5.26461304959342     -1.17281932037995      0.25564981494398
  C   3.95523063566636     -1.27185591824935      0.30562898678957
  H   3.93763467198514      4.18475893750167     -0.35959334284672
  H   9.26332829852162      4.42127373622902     -0.42427257612082
  H   8.78645913073817      7.10323472970162     -0.82922401962426
  H   6.06192779133565      7.28332765733439     -0.91483477266883
  H   6.78382425248424      0.11947533222160      0.06548181252718
  H   3.57243328782093     -2.27454581689080      0.43509050838336
