23
Coordinates from ORCA-job 12769optt
  Br  1.22768121391787     -0.00014966838303      0.03553466072795
  C   3.10749318437912     -0.04836355413010      0.04044098246384
  C   3.76159030643118     -1.24893847321083      0.04187246794668
  N   3.11317434810759     -2.44400307074397      0.04144818449209
  C   3.81224321431721     -3.53142660731280      0.04246389710552
  C   5.22548367485726     -3.59139839943172      0.04366121681119
  C   5.92951689424048     -4.84485954569325      0.04389217989119
  O   7.14519356990956     -4.97111469016604      0.04457738585719
  C   5.90419987404454     -2.36422275228636      0.04445860224752
  N   7.23655069064941     -2.30052779278689      0.04567027308955
  C   8.02097827465928     -1.12240686125753      0.04678846038715
  N   9.28878083446003     -1.12352959873470      0.04755783024958
  C   7.22119748988888      0.07435863540643      0.04690917384881
  C   5.86984456356875      0.02205006412625      0.04537275146653
  C   5.02362719461075      1.19114720372734      0.04481168179785
  N   3.74067430139475      1.14920716646247      0.04222587666897
  N   5.18270379089409     -1.20365639296977      0.04406236070213
  H   3.25671495524249     -4.46708551577577      0.04222002175821
  H   5.28559594704994     -5.74023063585235      0.04362996769008
  H   7.68572811534900     -3.22204701573643      0.04575153029789
  H   9.68344019638283     -2.06154565608893      0.04721587178047
  H   7.72822870043995      1.02658590818825      0.04790611531169
  H   5.51435866520497      2.15815725264973      0.04652850740793
