23
Coordinates from ORCA-job 12760optt
  Br  1.06334908535817      0.16964483039279      0.31666714691622
  C   2.95923387877229      0.11710039576981      0.17755094725926
  C   3.60010167293090     -1.13942738487834      0.12431497204379
  N   2.93850657880879     -2.32824661040980      0.16933384651352
  C   3.63653996719241     -3.52395481019289     -0.27336437932082
  C   5.01209161244181     -3.57517289984353      0.37432394772023
  C   5.80988553080794     -2.32712887578949      0.05369950485959
  O   6.99263015455705     -2.33661601570508     -0.14086571342914
  C   4.99943708215485     -1.05775547572290      0.04206192099458
  N   5.64636164576283      0.10231459768066      0.00267825134465
  C   4.92855044835485      1.20325604215698      0.04604411171929
  N   3.59005489528829      1.24594219778619      0.13695864358115
  C   5.62876258749003      2.49705499833351     -0.00180276040717
  N   6.94490711710936      2.62154834458567     -0.04268742550740
  N   7.07253131261922      3.92414575956189     -0.07460582566339
  N   5.94200696841785      4.59109555113548     -0.05698756129881
  N   5.00698777013374      3.70014050032439     -0.01006653135495
  H   1.94165039913472     -2.28385342334325      0.02021569303210
  H   3.74333612698707     -3.52445002127048     -1.36576269742454
  H   3.04612653392106     -4.39377699874456      0.00826488877935
  H   5.57921305094931     -4.44570297032722      0.05111267876023
  H   4.89779255580341     -3.61970685225036      1.46246461885524
  H   7.96894302500398      4.38554912075054     -0.10954827797296
