20
Coordinates from ORCA-job 12764optt
  Br  0.71449803707180      0.13286172824076     -0.19297319365112
  C   2.56975509266357      0.07105087121214     -0.05409084711468
  C   3.33486130256617      1.15497149540258     -0.03174528846246
  N   4.74231817023845      1.09203584625171      0.06108514134274
  C   5.26329948830579      2.33202822987983      0.04061906335551
  C   4.29148799633994      3.29298383171047     -0.04491660845152
  C   4.53534164416494      4.72809947531295     -0.07344803374584
  O   5.64061856581573      5.21622385079505     -0.04391019877212
  C   2.99387478332979      2.63000961275776     -0.09628946805335
  O   1.88009360659154      3.09195899075730     -0.16978613765756
  N   5.50252451683094     -0.03476294672430      0.10527192833724
  C   4.93055081162238     -1.15976321575306      0.11580724939019
  O   5.63183101564606     -2.30765270436687      0.16579984402148
  C   6.97802256970168     -2.27945330188260      0.51799922752380
  N   7.70723285228280     -3.27997875855864      0.40670079819633
  S   3.20617514958992     -1.56417185363502      0.04822904145147
  H   6.33400152275807      2.46388986810061      0.09121464714331
  H   3.62994130742050      5.35511037213842     -0.12095781620469
  H   7.31235113976712     -1.32600364972062      0.90888878112861
  H   7.21422042729279     -4.07943774191847      0.00850187022264
