29
Coordinates from ORCA-job 12768optt
  Br  1.25035148794667      0.27808255107355     -0.51651916365699
  C   3.10258092193072      0.09139324854690     -0.24535299922378
  C   3.71427202485216     -1.11562057638200     -0.20894699630989
  N   3.04768603445525     -2.31630512754331     -0.47637427816546
  C   3.66511120901441     -3.56309319932600     -0.06091076713935
  C   5.11546922269131     -3.56023469496501     -0.53439924222636
  C   5.13039949772674     -3.45609347705780     -2.04406885119449
  O   5.81607158294244     -2.70357134323520     -2.67735381889872
  C   5.86077044632003     -2.43936111937259      0.17943576727653
  N   7.27087508389870     -2.38879809667835     -0.14878993185298
  C   7.91626794730668     -1.30259564891882      0.58354297524758
  C   7.33921891432747      0.07526462487983      0.25985056682369
  C   5.84753694415493      0.04532793838350      0.09496417214168
  C   5.18341308719006      1.33865599206778      0.01308861595448
  O   5.73738837646224      2.42334761651319      0.07718049313513
  N   3.80814309486723      1.25582279640014     -0.12068007347861
  C   5.13950946142944     -1.10881525862840      0.00903634209732
  H   2.04991146063899     -2.26918742867501     -0.33427625272851
  H   3.11366090433013     -4.38127381835534     -0.52627883624487
  H   3.64021390703713     -3.71599977428410      1.02530798015751
  H   5.58441139925537     -4.51655905020774     -0.27922968255703
  H   4.44315572893846     -4.15624662922584     -2.55939975878132
  H   5.80277163177159     -2.68040232231897      1.24913630528836
  H   7.36587666278501     -2.23859832784915     -1.14880159826158
  H   8.98572132805780     -1.32432567531050      0.37552183206261
  H   7.79348407002709     -1.51301387482360      1.64975538876644
  H   7.77044561018138      0.46935594054493     -0.66635327239723
  H   7.59611621916913      0.80449854302171      1.03127328662947
  H   3.32116574029138      2.14034619172621     -0.15435820246361
