25
Coordinates from ORCA-job 12763optt
  Br  1.02447005488467     -0.01546959840619     -0.22713537614124
  C   2.88228852717118     -0.11586691425955     -0.04912779183795
  C   3.53245288602012     -1.28151756089168      0.21340091175113
  N   2.85619768087446     -2.49800376644324      0.42391000250046
  C   3.12394721419530     -3.58911946736302     -0.51753032211130
  C   4.46202660216096     -4.26292393165258     -0.25194082058692
  C   5.64310528247988     -3.32161108921586     -0.38715742359312
  O   5.66937588956952     -2.27842191447823      0.60159970347065
  C   4.96843916717334     -1.16236396100435      0.33726455292345
  N   5.63010937898985     -0.06104501407811      0.24794516983493
  C   4.97508757840141      1.12705000238011      0.01406038722392
  O   5.49233527138700      2.20754755853430     -0.06814343750473
  N   3.56884008591603      1.03238746158260     -0.16025266773663
  C   2.37264643610289     -2.75070134940009      1.70052710891849
  N   2.34221088964252     -1.99566487481238      2.71491013414757
  C   1.78114687177471     -4.07870233920977      1.86008610032080
  N   1.33097522808027     -5.12538048676349      1.97473147559806
  H   3.09761150049381     -3.15655490046756     -1.51923115442741
  H   2.31159991576553     -4.31071059777492     -0.45181070870961
  H   4.59873357518330     -5.07921067773339     -0.96605523730803
  H   4.45968719319766     -4.70343193844547      0.74827164728442
  H   5.67099357143924     -2.86332724308419     -1.38077136287834
  H   6.57719776215548     -3.85801510942856     -0.23715523978885
  H   3.09134965072659      1.90278499814336     -0.35014757567402
  H   2.78917178621421     -1.09672728572771      2.53975192432426
