24
Coordinates from ORCA-job 12775optt
  Br  2.44145217716075     -1.25417347399930      2.96685707807180
  C   3.24598757208743     -0.63339461429716      1.39275955560639
  C   2.78429338803197      0.44711664863671      0.72216337198181
  N   1.59962368658804      1.13812862615213      1.05075587516333
  C   1.71703322041041      2.39536800334048      1.16318628880072
  C   0.63962676286267      3.35588914063153      0.82049101238409
  C   0.42453629136016      3.77552779039902     -0.43442545812557
  O   1.03981229946654      3.36012981586604     -1.59198737720214
  C   1.67301032493770      2.14775168900472     -1.43149222820138
  C   2.97686397812586      2.00224299866643     -1.24972504814579
  C   3.47261111561115      0.79932128115523     -0.52733823502003
  C   4.55003643257507      0.08820551861380     -0.93615628158268
  C   5.06799449511250     -1.04244534596882     -0.18835236242012
  O   6.03429873476303     -1.71608629719743     -0.48256509717036
  N   4.33311830440496     -1.33034797913826      0.96322823803895
  C   -0.56085383713006      4.86342198327952     -0.72456189158143
  O   -1.16710527273313      5.44786188065051      0.12620045326612
  H   2.69569074357142      2.85735480041113      1.34893470518259
  H   0.07679832341952      3.87961209165692      1.58534832180864
  H   0.97619513866373      1.33004655766249     -1.28215286939853
  H   3.64737154823282      2.84469429488069     -1.37704839255733
  H   5.07232945694474      0.33201506717544     -1.85053450446667
  H   4.66609033795182     -2.11793736815600      1.50275937761012
  H   -0.68381522241911      5.08669689057414     -1.79834453204253
