28
Coordinates from ORCA-job 12777optt
  Br  1.94926038275958      1.54363934799574      2.88000836092438
  C   2.58271796779644      1.15225583234150      1.15502600015911
  C   3.64568732477942      1.86320321450462      0.59276277236928
  N   3.89488538532138      3.18265427283177      0.98009269664727
  C   2.99356727207720      4.12323116237168      0.26129181485632
  C   1.54087461983535      4.17646038006311      0.73098828739513
  C   0.51144698988447      3.10157845247134      0.37029845492855
  O   -0.44145174675542      2.95534817230835      1.09351330215063
  C   0.59469390333009      2.29995556101861     -0.91901483967511
  C   -0.06558782376013      0.91663040921684     -0.80966535861582
  C   0.50235942644359     -0.00039901355160      0.31229912342908
  C   1.98010502955600      0.21308389636753      0.31330940669189
  N   2.66443153604377     -0.28352817253547     -0.71975341402505
  C   3.85897033920119      0.23426878334431     -0.95024265448086
  N   4.33491963848359      1.35307255108668     -0.42399901629140
  C   4.67765348070189     -0.41784457226738     -1.95545953290458
  N   5.32805008325820     -0.93447721742803     -2.74348252922381
  H   4.84745861840344      3.41100444480700      0.71595525189029
  H   3.03715311593081      3.93436859871563     -0.81872605750523
  H   3.41936657372801      5.11186172631842      0.42817771965595
  H   1.11811169313055      5.09173778771499      0.29903535467617
  H   1.48976521753976      4.29770531548051      1.81260823077773
  H   1.62320582337244      2.22468882708627     -1.27631794176563
  H   0.05738451107375      2.88425200325903     -1.67375734334991
  H   0.06415365096144      0.41201252089817     -1.76727877650074
  H   -1.13324235933737      1.03846611592702     -0.63358682984619
  H   0.26131624311188     -1.03736961926107      0.08540997590100
  H   0.06874310312864      0.27313921891439      1.27050754173157
