23
Coordinates from ORCA-job 12783optt
  Br  1.32234964298612     -0.91985318076735     -0.91437827217152
  C   2.88654366396126     -0.12294175067600     -0.25047042585526
  C   3.01793236405803      1.22061190544153     -0.19761252619961
  N   2.01347272645337      2.08673781821812     -0.51150283186836
  C   2.27775087866599      3.40601163037746     -1.05179484416481
  C   3.43405235013242      4.00534614294876     -0.32769031412375
  C   3.54506466039488      5.47243455984027     -0.32576270221616
  O   2.73532068889423      6.16592147388111     -0.88689173339973
  C   4.33727699182582      3.21733871804394      0.28099601088946
  C   5.46050610816394      3.76165357330038      0.98004541974070
  C   6.38944371318473      4.24978609236731      1.55713026239098
  N   4.21419456695340      1.80916660570716      0.25599108390555
  C   5.28720952046342      1.01603807579736      0.62406413461045
  N   5.33607435071782     -0.24626789987464      0.69393917241790
  S   4.04560375865027     -1.23070013286898      0.42681029307120
  O   3.58393264007541     -1.68717313900314      1.69788831989551
  O   4.41628904376648     -2.18585918899051     -0.56224738529046
  H   1.17414544659213      1.63103151064714     -0.83620765609498
  H   2.48150521714744      3.38476683088858     -2.12978589016964
  H   1.40092621351106      4.03457758156578     -0.90206701997884
  H   4.40562615710551      5.90700761645124      0.20449386970137
  H   7.21297191464851      4.69008687272038      2.07007261834027
  H   6.17880738164768      1.58427828398407      0.86398041656972
