30
Coordinates from ORCA-job 12780optt
  Br  1.66642096324946     -1.01388309543991      1.49406444916159
  C   3.26146206945729     -0.55549001260308      0.59075459070302
  C   3.78408663669669      0.68893163076039      0.67715394103471
  N   3.05506714617553      1.72189920327855      1.28398709986864
  C   1.79247673672692      2.12831256043792      0.64675214213681
  C   1.91139955496954      3.44647576271223     -0.12056009181755
  C   3.18559741748693      3.51699264012471     -0.94494108412084
  O   4.23207808259071      3.94289628800541     -0.07922684937051
  C   5.51511668508953      3.44159498028840     -0.33446783333433
  C   5.85641322083416      2.21499036102827      0.55378663554521
  C   7.31041399778847      2.05532214546354      0.55264172788637
  C   8.50459828052151      1.97343766962962      0.53071217607074
  C   5.13442502538931      0.92849007324319      0.14961502746083
  C   5.77175247577572      0.06210871761640     -0.65804690302796
  C   5.26517199674812     -1.21015437739904     -1.15049469107358
  N   5.76143793006093     -1.92828559883373     -2.07360831585891
  S   3.87733880101518     -1.90260381088489     -0.30909171430459
  H   3.61673126480252      2.53466353902045      1.48266971520469
  H   1.00128847674432      2.19359106056514      1.39599144123910
  H   1.50390551215866      1.34303261284220     -0.05091981204008
  H   1.91462873441664      4.29981128393477      0.56165894208392
  H   1.03708054200901      3.55560004496783     -0.76513113973082
  H   3.09224538564174      4.23384326993945     -1.76555790073211
  H   3.42179678427212      2.53624097505854     -1.37354624347641
  H   6.22602872633668      4.23195620683788     -0.09347066627087
  H   5.64620179686337      3.16860114710540     -1.38642607399570
  H   5.57307275508180      2.47673331415557      1.57762778669745
  H   9.56547256390713      1.89032326339209      0.52743122471881
  H   6.77379971336530      0.30558150540891     -0.99524874161942
  H   6.60049072382462     -1.49601336065625     -2.45810883903821
