32
Coordinates from ORCA-job 12781optt
  Br  2.61679032076776     -1.73220122968610     -1.82280502130647
  C   2.57165289871668     -0.33841265299152     -0.56217339562651
  C   1.99946329352910      0.84153415780555     -0.89755102476830
  N   1.46933189602452      1.18234096543648     -2.10718322651539
  C   0.34617693788631      2.11102310947903     -2.19013593645123
  C   0.76832980150289      3.59922914048912     -2.14931845675727
  C   -0.13084765314060      4.39215141119983     -1.21471367392479
  O   -1.22278389628030      4.75418780063698     -1.57508429247258
  C   0.36264978225923      4.64169673524220      0.19525967018304
  C   -0.14408180850092      3.54494641824787      1.15335231320599
  C   0.74686733187094      3.34151635796750      2.37799784450150
  C   2.20403111701083      2.94907390613807      2.08321043238809
  C   2.39127404022502      1.71634094533058      1.25777260702351
  O   1.91973685789506      1.86968655765529     -0.01717967680975
  C   2.98297721033411      0.58611862614032      1.64668722591551
  C   3.15886280100368     -0.55882243503166      0.74926509665717
  N   3.74088594926954     -1.65609362008187      1.04684992142980
  H   1.46224098073902      0.41699609169712     -2.76350709213290
  H   -0.37779285708826      1.89826916204620     -1.40028009451620
  H   -0.16006779698590      1.90533496215876     -3.12989553923309
  H   0.67598266624212      4.03640150174995     -3.14297066660011
  H   1.80677206917894      3.66258198818744     -1.83419834616230
  H   -0.00694763300466      5.61356546598571      0.52342865594445
  H   1.45141547349101      4.66712031577429      0.18671953356663
  H   -1.15134033965359      3.80786541234254      1.47814027109784
  H   -0.23401165792862      2.59516022577319      0.62956725303387
  H   0.29954422716222      2.57075220930777      3.00975859304940
  H   0.76962491032523      4.25989946532549      2.97083127831567
  H   2.72381248795178      2.79021931840088      3.02765154153056
  H   2.71992877258561      3.77132364483921      1.58096174673026
  H   3.35804268700523      0.51274018828846      2.65866566803219
  H   4.07847912960600     -1.63354614585471      2.00687679067138
