24
Coordinates from ORCA-job 12786optt
  Br  0.79609910854011      0.99222447776052      2.05301080666003
  C   1.61513420609989      1.21483808393896      0.38877645317278
  C   2.82878377716453      1.76503312479590      0.15299034654497
  N   3.29161439594256      2.93706383935354      0.74334781038917
  C   2.63876669843839      4.12210553800274      0.29731425057710
  C   1.35511192263597      4.45718817077318      0.39175432780379
  C   0.29642806421985      3.99746305743226      1.34810322244463
  O   0.46361056134611      4.21454457237222      2.52458393808996
  C   -1.02102239473546      3.38467796332744      0.96602234424049
  C   -1.34328800235566      2.57055796239541     -0.03776953620989
  C   -0.53028484971303      2.26006746231456     -1.23904568950931
  N   -0.31991708266337      3.09622359022353     -2.16284572801232
  N   0.01683710838180      0.96388100822314     -1.47097015748187
  C   1.06655824109009      0.64429658316893     -0.83749253299485
  N   2.02403671028850     -0.20465423132534     -1.39844618055641
  N   3.31247626686409      0.15362954212845     -1.42036427536983
  N   3.66658089208547      1.17960514557278     -0.78409650848211
  H   4.29509634311758      3.00918146312447      0.63402647004068
  H   3.29401955061151      4.77724442018433     -0.26713612816488
  H   1.06029071677577      5.33690398168689     -0.17245875426013
  H   -1.73895014352421      3.50677685761170      1.76979538850997
  H   -2.30605071192893      2.06863540047943      0.00180435470740
  H   -0.74529397310069      3.99195382118406     -1.92762555532447
  H   1.76636259441912     -0.85044183472915     -2.13327866681490
