26
Coordinates from ORCA-job 12796optt
  Br  1.27738769013230      0.18193487301227     -0.35159497888679
  C   3.10164797279938     -0.07407444497205     -0.15777188516978
  C   3.70972156183305     -1.26290627492827     -0.07061726286025
  N   3.29536936114744     -2.58052674200440     -0.08327821231658
  C   4.41519663487734     -3.23463218602719      0.03738581996939
  C   4.50060543955873     -4.72205024498287      0.04956559911057
  C   5.35924349423624     -5.24244881994013      1.18609542697076
  O   4.74422225151778     -4.89133105450352      2.40580861716584
  C   5.48336016149805     -5.28863526797256      3.52486144633749
  C   4.72902511391528     -4.88099407574726      4.76880065058121
  O   5.15941689569617     -5.04423597207552      5.87411021374081
  N   5.59995324948610     -2.47334249710538      0.13526585729211
  C   5.14385213939368     -1.26519753889793      0.06875436713488
  N   5.81449951861967     -0.08342995892949      0.10965819540844
  C   5.16793745400291      1.14191405009855      0.04258094813536
  N   5.66273636378156      2.29122893124118      0.10031089649406
  O   3.79879607170602      1.07544527619089     -0.11288919670450
  H   4.94680766162774     -5.05165843410460     -0.89341730625874
  H   3.49222757912530     -5.12805686040156      0.11205912033565
  H   6.36118085081503     -4.80257005039243      1.13146188774070
  H   5.45346181393732     -6.33278118750046      1.11516760182481
  H   6.47571370600941     -4.82019395577824      3.54581340462132
  H   5.62802239840308     -6.37770354491121      3.54986687229149
  H   3.74065135399756     -4.41998953225325      4.58337155924271
  H   6.81745235299444     -0.08380014966531      0.21945229667016
  H   6.67051090888834      2.27903566255077      0.21417806112886
