29
Coordinates from ORCA-job 12793optt
  Br  1.96230650864707     -1.07549466187161     -2.16537854431899
  C   2.59441122490615      0.09857578737502     -0.84895182770410
  C   2.93700051476067      1.37489057376821     -1.14876472519933
  N   2.61482512131511      1.95002607056582     -2.40018661076072
  C   1.20851863245890      2.37847290792516     -2.42445113643863
  C   0.83373939193804      3.45376742025595     -1.38414948382388
  C   0.64058306144927      2.94500308436291      0.04167504596984
  O   0.11245169801955      1.89114446092796      0.27057481542663
  C   1.02288647276752      3.88534235002929      1.20839402620386
  C   1.62082908590338      3.10827521306261      2.36788486318963
  N   0.99994745584794      2.58267061432999      3.32176157957546
  N   3.04429105806040      2.81225184751056      2.24425542859832
  C   3.15739485724843      1.89762148680117      1.16989361749865
  N   2.79282159334841      0.63241940038077      1.46911386546816
  C   2.58399736268967     -0.39200186350366      0.52840697195238
  N   2.34669327357316     -1.60219570968317      0.83706901196206
  C   3.37077847810355      2.26873416660660     -0.11522148620405
  H   3.22002838977902      2.73951046036120     -2.59341453106868
  H   0.58404793419520      1.49839565262103     -2.27095273864696
  H   1.00175287845559      2.76603105077098     -3.42161197689978
  H   -0.13670964124882      3.87639812576018     -1.66844697651102
  H   1.55145881783796      4.27651303959682     -1.40412634138003
  H   1.71045593648561      4.65620023565632      0.85939096754580
  H   0.10097641014540      4.37310328124968      1.53302032380918
  H   0.00183597448418      2.78177765009037      3.26374994600841
  H   3.55270193071500      3.65738027627505      2.00669625367780
  H   2.56385893539764      0.44357766827594      2.43658215067008
  H   2.34782402072786     -1.74921291181769      1.84360070089460
  H   3.60229262198810      3.29782232231651     -0.35041318949469
