26
Coordinates from ORCA-job 12798optt
  Br  1.05634960535865     -0.13874019215411      0.14133832171462
  C   2.91554621126368     -0.26710283050304      0.29649175662033
  C   3.57702229990891     -1.41856681688230      0.39137993488435
  N   3.03589771038105     -2.70089112157484      0.45265122603291
  C   3.31293574100845     -3.55941424050676     -0.68960037185101
  C   4.59085583785749     -4.40016052181334     -0.52105313215425
  C   5.82858281158795     -3.56048067181150     -0.28266501875427
  O   6.82494608905970     -3.66952799046895     -0.94553399295826
  C   5.73905290947497     -2.52418998611293      0.83467980440210
  N   4.98428268776715     -1.37092392812345      0.37534212996221
  C   5.62892019064444     -0.29589515348771     -0.21468687047442
  N   6.81387014566128     -0.24924857910338     -0.65176842473447
  C   4.81905756558396      0.98569767715711     -0.25493977035870
  N   5.24911197099024      2.08390377257380     -0.65914115759460
  O   3.55792762041973      0.93334478444705      0.28125368879871
  C   2.14038366065386     -4.49480230565266     -0.90445423005675
  O   1.12313390644741     -4.42701038548105     -0.27859144984932
  H   2.04650387774818     -2.70713196981281      0.67946450158242
  H   3.40184773210096     -2.97367221113416     -1.61778389072884
  H   4.76515869906466     -5.02065073430685     -1.39965531892922
  H   4.46168518085543     -5.04617492387294      0.35399727741683
  H   6.74344620683861     -2.20444258560879      1.10518452175977
  H   5.23699625415102     -2.93970112347028      1.70708954909156
  H   7.29587621926734     -1.14549967836169     -0.63139771998212
  H   6.21255662118210      1.95639658792269     -0.97203045567878
  H   2.28805224472273     -5.26011487185710     -1.68757090816079
