25
Coordinates from ORCA-job 12799optt
  Br  1.22027855024886     -0.16075130988655      0.34155708530441
  C   3.10414971256339     -0.12979122151546      0.19483180062540
  C   3.78275846370769     -1.32345174592793      0.08556679221632
  N   3.40062376798223     -2.62189152643086      0.01875297195741
  C   4.52725737149741     -3.42208038254741     -0.06680071296793
  C   4.46713682600128     -4.90392043655780     -0.20652166402906
  C   3.27723527473573     -5.58668878380844      0.42269402890912
  O   2.26886010951369     -5.03048989360975      0.75882018876258
  C   5.60998408627474     -2.61399938319988     -0.07144429991293
  N   5.14270321876390     -1.30980368195980      0.01841695384754
  C   5.91210986225038     -0.13068937634971      0.02770021425703
  O   7.12791071727916     -0.18982670402683     -0.01866729738754
  C   5.08144891378686      1.04679318817291      0.10672853675399
  C   5.79041635507842      2.35730907403949      0.03532845246802
  C   6.30449237966177      2.66565722594343     -1.35560865061774
  O   6.05603631333337      2.01826027558221     -2.33144652912067
  N   3.77063520041064      1.00799452864326      0.19197154685554
  H   2.46376677394985     -2.96330880503042      0.18068763404606
  H   5.38261062469700     -5.35104578248535      0.18436879395409
  H   4.43003836596489     -5.18841567430983     -1.26698961602552
  H   3.37337293385567     -6.68238679375594      0.52181785931348
  H   6.66338931165899     -2.81400252477335     -0.14808066412674
  H   6.65444210645403      2.37817056384547      0.70659240960335
  H   5.11780534584619      3.16633711905398      0.32996671928973
  H   6.93953741448379      3.57002205089459     -1.42324255397594
