27
Coordinates from ORCA-job 12794optt
  Br  1.97615553988695     -0.74334569851052     -3.14072252968999
  C   2.63159732433625      0.07136008069977     -1.56601237232570
  C   2.84122425848123      1.47276508753925     -1.51886600813411
  N   2.33195176263896      2.33361452384562     -2.48188086362365
  C   0.87557482505855      2.52919015218490     -2.28894600862031
  C   0.46199394876209      3.27521783932040     -1.00640087972787
  C   0.64838875696431      2.57869261597060      0.35566468465124
  O   1.61676576235950      3.29940727564312      1.10294178402403
  C   2.19295412559862      2.67386944855078      2.22651226708936
  C   3.58516965018748      2.09421816193615      1.90253826692275
  O   4.56554128403038      2.33368312378779      2.53899634098706
  C   3.52093472135688      1.26362171179920      0.63856952347675
  N   3.41627542812659      2.00850835598995     -0.45845580047211
  C   3.21656913579632     -0.09130098996033      0.61198310059072
  C   3.18068497050066     -0.93659251235131      1.83092933801105
  O   3.15548330853196     -0.47523672422876      2.93969786889855
  N   2.85278220531723     -0.68632988891054     -0.53154776968223
  H   2.80293853557701      3.22731906068600     -2.37703415316357
  H   0.40154531594286      1.54740850411362     -2.33308103874826
  H   0.51688165993284      3.09117161987083     -3.15092789213179
  H   -0.59341991500577      3.52610302064216     -1.13058070096916
  H   0.99920325587821      4.22503770294922     -0.95188998204876
  H   -0.29304079407482      2.57780150002506      0.91474516858837
  H   0.93972610504068      1.52762640585393      0.23435881823972
  H   1.56718502246209      1.86056835646363      2.61356055816353
  H   2.33003762408318      3.42083369317054      3.00807740611004
  H   3.13589618222972     -2.02121242708109      1.63577087358437
