26
Coordinates from ORCA-job 12804optt
  Br  1.55283901126645      1.58271167778991      0.60351752120641
  C   2.88946736303870      0.33502660371249      0.17007279093858
  C   2.73239684687349     -0.98883545840200      0.46143763161930
  N   1.62000930547413     -1.56480056558585      1.03896804300012
  C   0.44562425692706     -1.71844045328837      0.16992949079751
  C   0.68102517964841     -2.75795842337563     -0.93322726937460
  C   0.87846520765280     -4.13671019476848     -0.32541393613035
  O   -0.04017958434129     -4.70716657613471      0.20210072468669
  C   2.27430700118478     -4.75446386514313     -0.32752523448799
  N   3.12236037515055     -4.07772125081445      0.67813476149013
  C   4.04752395593777     -3.14227694133269      0.20302445373330
  N   5.25475878957676     -3.38836770412793     -0.22343266078438
  N   5.85797144848354     -2.23283720630453     -0.58572110565311
  C   4.99716676896686     -1.26462782382151     -0.38536560744751
  N   5.13331246785480      0.04961633901221     -0.66153661095953
  C   4.11203860663665      0.80329320596481     -0.40206356632069
  N   3.81457130276244     -1.78670993823027      0.14286333521905
  H   1.86166834590059     -2.44857247068804      1.47546842191773
  H   0.20787759973892     -0.75182207914100     -0.26991748213082
  H   -0.39450918563112     -2.02444627797688      0.79150205673359
  H   1.53521753705043     -2.46788019340679     -1.54996935219226
  H   -0.20307856730928     -2.80830285000792     -1.57179991921038
  H   2.73004280715713     -4.69889968455538     -1.31974972856927
  H   2.16335040535073     -5.79778883848252     -0.04114075699719
  H   3.60900800412778     -4.76188071798300      1.24125973787076
  H   4.20176475052086      1.86286168709171     -0.61841573895509
