21
Coordinates from ORCA-job 12802optt
  Br  1.08619469375834     -0.02622331254759      0.02860390931006
  C   2.94876750982134     -0.02283581767257      0.04060280079179
  C   3.66643572414156     -1.18549947332669      0.04358640921552
  N   3.31108697274184     -2.51324950674799      0.04014031979613
  C   4.44466093194616     -3.16524968315276      0.04129023710191
  C   5.62019209461938     -2.31737273579680      0.04557820470227
  C   6.99796281890121     -2.75466319305015      0.04486352415384
  O   7.36906720172063     -3.89929390871464      0.03630891225303
  C   8.00864349335204     -1.66024158011076      0.05589126529030
  N   8.76848506929349     -0.80312778042152      0.06482732158573
  C   5.08343055454832     -1.05051106717255      0.04765801551897
  O   5.66606079228761      0.16079765275095      0.05061510401931
  C   4.85276409360010      1.23012506928032      0.04990599252078
  N   5.56576271638825      2.37362106006496      0.05452431473114
  C   5.07571406715612      3.69915016008844      0.05714568586007
  N   3.89136854243856      4.10441032024323      0.05691233531519
  N   3.55734809091528      1.18389960786929      0.04486599492610
  H   4.48025159422709     -4.24616043123935      0.03942266968969
  H   6.56856083518717      2.24975516887312      0.05722495404072
  H   5.90456991242891      4.40351866352669      0.05970306366104
  H   3.21267229052657      3.34515078725640      0.05432896551642
