25
Coordinates from ORCA-job 12818optt
  Br  1.60566520799865     -0.22285572816170     -1.33910702767988
  C   3.25838929667188     -0.02510841627719     -0.51068326488671
  C   3.71108592972495      1.15529324155710     -0.06456955080935
  N   5.01014491952748      1.20643132067136      0.51091925568827
  C   5.84827410446794      0.11287698810569      0.44658552581530
  C   5.35655257635336     -1.05542614867035      0.02759863880637
  C   6.13259729391186     -2.32448283696076      0.03590178945652
  O   5.82902429466653     -3.01497464115309     -1.17269301096340
  C   6.45118422057387     -4.17685518508412     -1.40928148387480
  N   7.36755941117281     -4.75664595902870     -0.76764598345287
  C   5.91826888253506     -4.86649068501166     -2.64579418360627
  O   4.95822403293527     -4.48519870776115     -3.24394523438480
  N   4.00387199965688     -1.17582162619515     -0.36541048005778
  N   5.36969492799942      2.44990594903205      0.80650287536889
  C   4.37125587602054      3.23851312627565      0.53212403769599
  C   3.21762792446788      2.53160652860921     -0.03790994249181
  N   2.06645528500867      2.93222362705706     -0.42659508747994
  H   6.86718421593620      0.25891889379474      0.77089348112888
  H   5.84041326370646     -2.96418728114466      0.87725375250974
  H   7.20025380814458     -2.10305740560975      0.10394232869317
  H   7.67410945310145     -4.26635005416269      0.06980651538478
  H   6.49523857788537     -5.76381738277602     -2.91903114643605
  H   3.79377116495049     -1.93448546966253     -1.00149606511276
  H   4.44060153036717      4.29646277080640      0.73057335834563
  H   1.97855180221509      3.93852508175028     -0.29793909765710
