24
Coordinates from ORCA-job 12813optt
  Br  2.27923067411086     -1.86840946981317      0.91518652137230
  C   2.96943677331229     -0.35896927553841      0.00537040625664
  C   2.39381750804008      0.85559130887437      0.15358542483872
  N   1.32264769269135      1.07473848186496      1.00530003753191
  C   0.81659280879014      2.31743586277160      1.17611954640912
  C   -0.35281550298478      2.76337598001332      1.66495170120682
  C   -0.67820584505162      4.13390562989689      1.26154206460319
  O   -1.61055286710692      4.78886627796885      1.65089174247391
  C   0.16531908777664      4.63376025981735      0.06499127013594
  N   0.84716201314611      5.69003585682749      0.13718021821443
  C   0.03910747669756      3.73666743763829     -1.14663501239931
  N   0.91937213130867      3.01421910961982     -1.68751650485156
  C   2.27362442797080      2.86415668568778     -1.43798859738092
  C   2.92550868008629      1.95207110782400     -0.68762342507935
  S   4.68829611041084      1.93461271368569     -0.76186113784027
  N   5.02438616821336      0.33076508754537     -1.08179784291985
  C   4.18798258580849     -0.57794286583048     -0.75145844024503
  H   0.86891737632196      0.26344140340780      1.40285126915723
  H   1.49633976361613      3.06146021485256      0.79182956089405
  H   -1.10038267936703      2.16390238506050      2.16618137644890
  H   1.31964381963777      5.89758546804278     -0.74582914481779
  H   -0.96813728056768      3.67507237449783     -1.56404032866388
  H   2.88969363161450      3.49112050135270     -2.07689334482916
  H   4.46601544552419     -1.60546253606793     -0.96833736051605
