24
Coordinates from ORCA-job 12812optt
  Br  2.89111479952907     -1.52889113322703      1.72032972074573
  C   3.38376880819263     -0.29202602229200      0.40832972871006
  C   2.77092751041413      0.90138555957621      0.25250366511991
  N   1.76987924579183      1.26744174934172      1.18275813846512
  C   0.59304120950534      1.84562631136294      0.77612228691168
  C   -0.03846578531906      2.87735290508310      1.35942169473683
  C   -0.72055134298107      3.69317118289307      0.34062734382952
  O   -1.60016919900556      3.34310573433471     -0.40134548297122
  C   0.05429644061817      4.98466235889663      0.03387588700214
  N   -0.40624462646055      6.12254957647924      0.33390529389684
  C   1.37435397298938      4.74530888076705     -0.63244577019383
  N   1.78851907367946      3.55326066834221     -0.69666326149201
  C   2.92927584352692      3.00802020152628     -1.20166988512712
  C   3.32187124841931      1.76912525770764     -0.79970811756197
  C   4.49509714287281      1.20308140202162     -1.44721639611773
  N   5.02494611423344      0.06394899071196     -1.25079367187443
  O   4.42960530051497     -0.74626774687884     -0.29089667621842
  H   2.11839962515612      1.55365705145541      2.08754940876844
  H   0.23999907639146      1.48832149105081     -0.18399008072588
  H   0.41097637716102      3.38236292520157      2.20661023147217
  H   0.22946576426298      6.86847556718261      0.03822252996599
  H   1.92651241656539      5.62768896181830     -0.98528556575875
  H   3.52154238756403      3.53315702813442     -1.95131240363283
  H   5.01083859637775      1.78748109851030     -2.20192861795026
