28
Coordinates from ORCA-job 12810optt
  Br  1.41592279721436     -1.38332179705942      0.36530274251715
  C   2.54075942499086      0.06192289103705     -0.01734161703995
  C   2.42939133630819      1.23755057560465      0.63303959309260
  N   1.43349174469248      1.46430411715908      1.57344682849120
  C   0.08859821607264      1.77643152033676      1.08163267343057
  C   -0.03828992720272      3.16072253980216      0.44480328972878
  C   0.73918299217603      3.30674637689152     -0.87505478411538
  O   1.59624500305159      4.44520776703452     -0.93992483966237
  C   2.60767193543642      4.70068198093831     -0.07586662546325
  N   3.11007111466612      5.84981947242817      0.01151020054198
  C   3.17596725974047      3.63940437431279      0.85860046011509
  N   3.31638152094512      2.28477971030629      0.33369488560777
  C   4.33867942677231      2.13375544782434     -0.58946435039828
  O   5.10973353914118      3.00415491374669     -0.85598424350202
  O   4.42079466675309      0.93871943187969     -1.21031373649463
  C   3.56110746060101     -0.13644589292562     -1.03171415955345
  N   3.71580271271701     -1.18117440500230     -1.70696992832424
  H   1.71690962772389      2.06443294687167      2.33203150013849
  H   -0.59296432569034      1.68772614953702      1.92734338079291
  H   -0.18832440170058      0.99986483713307      0.36737422029849
  H   0.29726027717796      3.92617674815733      1.14976063586113
  H   -1.09587999197453      3.36395077760231      0.26799548688000
  H   0.04636867113614      3.47287858076608     -1.69672046310133
  H   1.29582379108964      2.40196772259911     -1.11723361572099
  H   2.62232936298307      6.50316265545650     -0.60059049660708
  H   2.57365692136452      3.62474901285877      1.76032805656289
  H   4.16166481875838      4.00594795816618      1.12954322152721
  H   4.51064402505565     -1.09511641346279     -2.33722831560327
