25
Coordinates from ORCA-job 12827optt
  Br  1.11040533874285      0.61446960394563      0.39427809371857
  C   2.95353182500358      0.32953154943351      0.22279259315585
  C   3.43903001501107     -0.90508691285502     -0.13758708323785
  N   2.81211240968872     -2.06903744816755     -0.42179285306338
  C   3.79711259668636     -2.91278227483002     -0.69176901911151
  C   5.10815312543513     -2.36687097741463     -0.61557806141677
  C   6.35737994490025     -3.10636448240716     -0.93072683294076
  O   7.21763359250409     -3.11977772851862      0.22957019652084
  C   8.42819808099143     -3.65984422145329      0.04327290574876
  O   8.81530593015709     -4.12728604377077     -0.98456962690270
  C   4.87396415440631     -1.05108023354403     -0.24898441895085
  N   5.65176073375963      0.04074714992660      0.02375633382982
  C   7.10433866520296     -0.05788851762266      0.04633472613765
  C   7.61496784341037     -0.66425114644727      1.34976832098512
  O   8.78253087589617     -0.72915360783270      1.59077046341319
  C   5.04744297373468      1.19797380310243      0.36771039204407
  N   3.76004404465099      1.37105371841946      0.46467571847163
  H   3.58142229129445     -3.94129586060490     -0.95609585352011
  H   6.91916849458764     -2.67574456258852     -1.76130251816333
  H   6.12447025632403     -4.13595623206130     -1.20440769219101
  H   9.00853840508663     -3.60218980476504      0.97112728000788
  H   7.53612796437294      0.93666713454111     -0.06333039902940
  H   7.44734920194179     -0.66390293611969     -0.79087617989484
  H   6.83821409612888     -1.01522593273740      2.05336929890134
  H   5.70879714008177      2.03229596437186      0.56859421548780
