27
Coordinates from ORCA-job 12825optt
  Br  1.34615736934657     -0.80595315719065      1.46717867139656
  C   2.80896321271710     -0.12607809593318      0.49192525233273
  C   3.10071754955065      1.19163220978308      0.48715004855082
  N   2.29307178025998      2.15481719261564      1.10231692716961
  C   0.95113509554726      2.38210381743479      0.58730000304930
  C   0.84981238261356      3.63567349866273     -0.30958271152316
  C   1.95275440679156      3.71508776363768     -1.37590182146340
  O   3.05427101721438      4.41680950633660     -0.81911439722867
  C   4.31711667348442      3.87701639563868     -0.99043204207384
  O   4.65074835223876      2.95379189230346      0.03302226449596
  C   4.33346711933270      1.63651401192063     -0.16103892582983
  C   5.17541718631324      0.86571119571271     -0.86870979758752
  C   5.00416365103874     -0.55032810074710     -1.13534175303378
  N   5.73206274138538     -1.29331869272026     -1.86377187909110
  S   3.66113353079847     -1.38821314011173     -0.33642551750277
  C   -0.47744652502322      3.66348919041817     -0.92584552457058
  N   -1.51504850284560      3.65128952518476     -1.41168182552097
  H   2.80302945284821      3.00809176896171      1.28417956120026
  H   0.23432925872441      2.47394062865558      1.40507362386453
  H   0.65372477765216      1.51490302138538     -0.00109202118600
  H   0.94284434700766      4.53730165118313      0.30201715253048
  H   1.59657857380003      4.26378726274471     -2.24905884374274
  H   2.24354292298906      2.70855114427891     -1.69294016340192
  H   5.02624488139188      4.69331562348375     -0.88511044933799
  H   4.41986055943355      3.38482126607719     -1.96354199863349
  H   6.06863313713284      1.32693645984778     -1.27564847627497
  H   6.50071504825621     -0.76669383956417     -2.27492535658749
