26
Coordinates from ORCA-job 12838optt
  Br  0.81821989734470      0.76713679010569      0.32958986996472
  C   2.63743304939425      0.96846193591038     -0.14927055356974
  C   3.57611836438879      1.35636507113833      0.81392811595345
  N   3.25418009558602      2.07120753608813      1.97908150888431
  C   3.49882565788602      3.52309023902998      1.77824694195322
  C   2.71350392689858      4.22676697183649      0.62927161541839
  C   3.50045023773437      4.70916939680101     -0.59074578013508
  O   4.05418970667759      3.57147344721473     -1.25532280974323
  C   4.14430184761015      3.46025952727231     -2.58134464492791
  O   3.99303363926136      4.31107315752038     -3.39155124190006
  O   4.44935260594107      2.15526675532353     -2.92163902998948
  C   4.28061512875573      1.31921487842542     -1.82375134552939
  C   2.98573876976012      0.96585977577550     -1.48781838183036
  C   5.29576032147620      1.24019366125523     -0.87345752978469
  C   4.92016645809303      1.25052403859272      0.46467906868475
  C   6.65725597474441      1.49558907249901     -1.23423673904922
  N   7.75508651083639      1.70263586841538     -1.49542059461026
  H   2.29599320956095      1.91040484834008      2.26514426975216
  H   4.57143460507278      3.65477397695637      1.63084100425579
  H   3.25116098835720      3.99951802268139      2.72569097198771
  H   2.23415950621257      5.11789557916574      1.04100344802569
  H   1.90260929684856      3.57971665897114      0.28615227486340
  H   4.32802863159476      5.35987640609857     -0.30192082173318
  H   2.85747318310343      5.25166918552300     -1.28437740466496
  H   2.22117816286830      0.94852543013721     -2.25304754286211
  H   5.67073022399260      1.39133176892226      1.23127533058608
