21
Coordinates from ORCA-job 12836optt
  Br  3.14989509604349      0.93581145455757      3.70013905695302
  C   3.70645632011412      0.22025767763845      2.06367276150697
  C   3.23059273433060      0.71650206783252      0.87276037397359
  N   2.39955477646432      1.83038486478240      0.94507334473404
  C   1.37501969132408      2.03449620998786      0.21117760762007
  C   0.97968825385674      1.19896962522972     -0.91060119989362
  C   1.09083954574201     -0.13311352774820     -0.89022241120066
  O   1.56069322711622     -0.77917935479904     -1.96798464803972
  C   2.74034239265856     -0.11718157237281     -2.52607453116254
  O   2.83850834750741     -0.11113641146012     -3.70944256391228
  N   3.54767339442843      0.40735958191094     -1.59370938549889
  C   3.73031004918799      0.07421204253778     -0.34575019214144
  N   4.56729604505089     -0.97664167608552     -0.10831832638638
  N   5.02831119139343     -1.45853731260738      1.03423301518033
  C   4.60956246753694     -0.86941515746470      2.10778950728979
  C   0.67172022086970      3.28719909504551      0.42405035958764
  N   0.07215163676791      4.25350941109679      0.56129939663695
  H   1.01795787295076      1.70513726392387     -1.87228041057161
  H   0.93135574625940     -0.74215411959113     -0.00466996401464
  H   4.93065449357256     -1.43007861505979     -0.93906274011933
  H   4.97941649682441     -1.24840154735473      3.04992094945873
