26
Coordinates from ORCA-job 12837optt
  Br  2.50903568661160      2.53092424577761      2.05521598396939
  C   3.78592251086347      1.46184876582543      1.16850888849045
  C   4.65947649622442      1.99898724495736      0.29145974465540
  N   5.57103522211482      1.18452509526092     -0.36568118041350
  C   6.65596435780954      1.71655209612758     -1.19608403454285
  C   8.00836977935810      1.72511245254104     -0.46205408995680
  C   8.16531319470942      2.97108714154230      0.39852721883489
  O   6.88428317277352      3.16357956257423      1.01016389798969
  C   6.38823312896926      4.40082944231684      1.07624336098638
  O   6.98648410472679      5.38855989388094      1.33773717032733
  O   5.06253915483027      4.39749631906101      0.79374856974275
  C   4.56732974691741      3.44693718281126     -0.08702809224907
  N   4.00794997710248      3.88089525153153     -1.11651985792267
  C   5.58356920036974     -0.19164766143586     -0.12121363598929
  N   6.37561997147434     -1.06470353772894     -0.61310801103805
  C   4.57306161649806     -0.63914512043503      0.84177448478311
  N   3.74792964325627      0.12419515716246      1.45090210986953
  H   6.38782321692450      2.71894647312590     -1.52408319240885
  H   6.70804600442938      1.09992436281927     -2.09385998416645
  H   8.82325531730798      1.68623690412062     -1.18675896056219
  H   8.08252124016439      0.82960872803438      0.15648384838157
  H   8.92452543660933      2.85355159878991      1.16978321784952
  H   8.40483061749977      3.85385745126391     -0.19626508571634
  H   3.60936012367103      3.11860168681474     -1.66314345247025
  H   7.06773758735245     -0.69513979743871     -1.25499113329712
  H   4.56378349143162     -1.70462093930072      1.04424221485343
