24
Coordinates from ORCA-job 12832optt
  Br  1.00974475968037     -0.10765768540418     -0.40231532793906
  C   2.86654531773294     -0.02339667423400     -0.19778193230989
  C   3.60401040007992     -1.16700152833644     -0.17834929924521
  N   3.22666011331412     -2.46618540322463     -0.28577090690889
  C   4.34534365488502     -3.29965879856374     -0.21626452354476
  C   4.17012024278152     -4.76972397999882     -0.31303758892409
  C   5.43536958053299     -5.57905324801487     -0.23947981108989
  O   6.54810629596784     -5.14414138716881     -0.13024423970398
  C   5.24656702502953     -7.09852883843525     -0.31247550980228
  O   4.16401301847279     -7.59845528851767     -0.39070740309707
  C   5.42208510286578     -2.51136813974396     -0.06299885514298
  N   4.97015920710453     -1.18756936069068     -0.03630637894017
  C   5.72877683729706     -0.01611215865543      0.10099596295496
  N   6.98495755707698      0.05959871403474      0.24011321407286
  N   4.94326096399254      1.11066820920134      0.06900214717340
  C   3.54865660128877      1.23660831580815     -0.07457730807764
  O   3.04884077973341      2.33876844125113     -0.08328200339778
  H   2.26555847952038     -2.74407463289049     -0.40211540548367
  H   3.66595838810644     -5.04508156556222     -1.24704372244919
  H   3.50290098739204     -5.13944453997790      0.47423428943978
  H   6.18840341007993     -7.67273695683854     -0.28306399039220
  H   6.45784655539267     -2.77340655779696      0.02668901607074
  H   7.44305854295653     -0.84325991777666      0.24863301324904
  H   5.44305617871585      1.98421298153592      0.16114656348799
