21
Coordinates from ORCA-job 12833optt
  Br  2.64346458926618     -1.61694406873162      1.97902376838754
  C   3.34478819367619     -0.56385966477674      0.60843868189621
  C   2.88910914663552      0.68271393415628      0.36205633337662
  N   1.85321077228890      1.26634132571795      1.07445555441233
  C   1.35561087180107      2.38962342548033      0.45228059897084
  C   1.22137326171281      3.67351429319387      0.77925699837000
  C   1.43875350726684      4.52929544013435     -0.42210047795668
  O   1.17832548401110      5.68406188245962     -0.56505355473160
  C   2.31330116219666      3.74571256302620     -1.48022458835197
  O   2.09723032023728      3.76197370505762     -2.64947795400622
  C   3.52435432135790      2.97819874627884     -0.88403786218067
  N   4.50483269864563      3.72351273813695     -0.62831809234312
  C   3.60130531815817      1.45906023508314     -0.67999055247645
  N   4.52857236654486      0.94433195756406     -1.39833357914621
  O   4.86928267091515     -0.35545730741188     -1.22620157768067
  C   4.39409527994442     -1.15748439320466     -0.20794381714850
  O   4.84264451866277     -2.25428195833962     -0.10098731189993
  H   1.78047496245174      1.08671888016234      2.06599890805172
  H   1.22136192233435      2.16465488779638     -0.60284731071736
  H   1.27213044172845      4.09817100994007      1.77244118014265
  H   5.31577819016398      3.20414236827649     -0.28843534496848
