26
Coordinates from ORCA-job 12840optt
  Br  1.28178231877656     -0.03124422551742      0.25530353758629
  C   3.14352722468701     -0.03291699586081      0.04365200645801
  C   3.83279535228141     -1.18067871565242      0.16351982337205
  N   3.43584170376433     -2.45127747184077      0.48561409480899
  C   4.47413999751971     -3.39732691471369      0.09371034489905
  C   5.75382847600418     -2.53015067166730      0.12411506150075
  C   6.66739507485948     -2.91062028876751     -1.03005938240827
  O   7.65589059500842     -3.56333134476648     -0.88144747942101
  N   5.19811381667227     -1.19760949685874     -0.03404305232094
  C   5.85875530118079     -0.00597633802959     -0.20937476487394
  N   7.22020070518360     -0.09370842364829     -0.29572380775720
  C   7.97770291565367      1.15007678044672     -0.39811935156004
  C   9.40519535612928      0.85578307586802     -0.46772729072822
  C   10.57476381070133      0.60882557737240     -0.51128542107469
  N   5.25702402573698      1.12152836338641     -0.33505343668901
  C   3.85551941814448      1.20735981371299     -0.28874528802174
  O   3.28357172848299      2.24953039274222     -0.49464494375788
  H   2.46479754945337     -2.67795103140015      0.32858089117509
  H   4.30769981059131     -3.78698485488472     -0.91714545587871
  H   4.54584156775468     -4.23191944422527      0.78629146698320
  H   6.29530383335721     -2.64052862075453      1.06747630875744
  H   6.32138732690108     -2.56642401160576     -2.02374673515741
  H   7.68466523464649     -0.84168470817459      0.19829445094143
  H   7.76446871955683      1.80635154377761      0.44992639796719
  H   7.64990460740410      1.68028655088917     -1.29211135315508
  H   11.61588352954831      0.39359146017250     -0.55625662164533
