25
Coordinates from ORCA-job 12846optt
  Br  0.98258016674055     -0.24472426802737     -0.02583159145620
  C   2.85759109950736     -0.24397609637378      0.10684610673736
  C   3.56456397790667     -1.40379695096068      0.38433769565572
  N   2.94153964580493     -2.66932078906512      0.57886659578811
  C   3.16876204183948     -3.72058009798162     -0.41568126220548
  C   4.51857035724651     -4.45399426710512     -0.25978985433843
  C   5.60010331965365     -3.40850831008440     -0.39745276398293
  O   6.20550574676993     -3.20660423954902     -1.40832587401615
  N   5.69736506500778     -2.52015018049673      0.71605025793041
  C   4.95700073392820     -1.32374625376779      0.43865263328708
  C   5.57532192877960     -0.11312369721863      0.18010577218302
  N   4.89118242320475      0.99324374985667     -0.08994731760737
  C   3.56812340653444      0.93152987109484     -0.11679807934441
  C   2.25459797461898     -2.86174348308201      1.75323009560309
  O   2.14875578903074     -2.01129899833399      2.60289927801501
  C   1.66833780798445     -4.19025168295491      1.92891198727847
  C   1.18674006758804     -5.26402536195133      2.14701381895008
  H   3.11640789652318     -3.25652260618281     -1.40147989088569
  H   2.35521818360187     -4.43774190588303     -0.33902297460283
  H   4.62221441546950     -5.19542355163626     -1.04976862265225
  H   4.55172524710503     -4.94719377291326      0.71418203941579
  H   5.30601284292410     -2.95573250274974      1.54526150963546
  H   6.65667680658955     -0.05301672967691      0.19720600640066
  H   3.03187409701004      1.84695793792895     -0.33663243629359
  H   0.75122895863055     -6.21525581288587      2.34716687050505
