22
Coordinates from ORCA-job 12847optt
  Br  0.90324113013704      0.16306802583709     -0.03785500524049
  C   2.74784362644043     -0.25396349756978     -0.12302633836743
  C   3.16122097642685     -1.54785139952879     -0.14690156673636
  N   2.19718311058863     -2.55607050607242     -0.02976615321803
  C   2.63000704248172     -3.86413660133692     -0.07103289086841
  C   3.53414878420797     -4.13608811889230     -1.03280283477093
  C   4.82184355473806     -4.26266679477660     -0.30439658697082
  O   5.33807475762585     -5.17038284098742      0.26874382683493
  N   5.34060711672854     -2.92671422912132     -0.23328401483684
  C   4.67133393874021     -1.84162930201166     -0.21755834516610
  C   5.64237605789817     -0.61665999531794     -0.30484659793157
  O   6.81475128127201     -0.79704807405530     -0.46935758807294
  C   5.04079378151677      0.70307527487598     -0.18615473366647
  C   5.58793617469633      1.94228510907296     -0.13659961420732
  O   4.61676718277357      2.86330915973551     -0.02914790047913
  C   3.42237180396672      2.21593910177242     -0.01315836075599
  C   3.62937838473976      0.87959048579741     -0.10509744501882
  H   1.34162841469848     -2.30162273067937      0.44164875374874
  H   2.48776221097240     -4.48029131571640      0.81210333342448
  H   3.55545956690407     -3.44109994697436     -1.86493869800470
  H   6.60359228618740      2.29662167650166     -0.16401644250578
  H   2.54167881625896      2.82833651944755      0.06144520280997
