25
Coordinates from ORCA-job 12850optt
  Br  2.16154891050500      1.32660202714059     -2.47544003140817
  C   3.37956811551357      0.92531770600384     -1.12247029686700
  C   4.05806242705081      1.87294901813673     -0.39969259487174
  N   4.01835320175224      3.21433946160919     -0.46242159639093
  C   4.89448817159589      3.62393338596320      0.47103832592046
  C   5.12134217686872      5.08162735161117      0.71775173122626
  C   5.56791914706001      5.92599453343045     -0.47382234819348
  O   6.28173774684108      6.89308490475644     -0.31619253872266
  N   5.09150399900146      5.53952573278369     -1.68466607926594
  C   5.45009596853637      6.25462339663297     -2.88046667924479
  C   4.30414330193993      6.92537513051808     -3.51442213573459
  N   3.41712831357978      7.43446842510909     -4.02994661708660
  C   5.51679172188121      2.56106736978071      1.15962553134283
  C   4.98122960479371      1.40647935428326      0.60700946893628
  C   5.11461794139667      0.01431328174756      0.77723932911458
  N   4.44178316314855     -0.85284368601440      0.06830149817906
  N   3.60258941570610     -0.36846403572278     -0.85035914095630
  H   5.86833970610212      5.23200620292926      1.49367585633601
  H   4.18750838415193      5.53099719438123      1.07002993676537
  H   4.47802408359559      4.73300662450861     -1.72434768254797
  H   5.89661620473673      5.58556705744731     -3.61837518261275
  H   6.18848037653051      7.00820607935209     -2.60587163452914
  H   6.25056140916089      2.64859762303863      1.94443740538344
  H   5.78550478070196     -0.42111294464706      1.50668501977158
  H   3.10706172784908     -1.07666119477993     -1.37329954454380
