23
Coordinates from ORCA-job 12858optt
  Br  1.08394036929373     -0.18821938849859      0.10237430965524
  C   2.93257715945843      0.19330560120389      0.11637146615726
  C   3.37713811931463      1.52288726813569      0.27549138784144
  N   2.41597042040100      2.52818865857577      0.43251011288480
  C   2.83677434116883      3.82440876155663      0.33785347181203
  C   3.78348296043863      4.06779960794079     -0.60103990988401
  C   5.07296297005315      4.25465073266725      0.08251848555497
  O   5.76240733579982      5.16542671240053      0.37512577344634
  O   5.43221391413048      2.96660422780824      0.55806177579846
  C   4.78528074915346      1.76959354293028      0.30341025306746
  C   5.67958271050621      0.71555776072401      0.12757950432558
  C   5.20417018208737     -0.56292262354404     -0.02312302656471
  C   3.83882785431384     -0.82948690002846     -0.01927515238129
  N   3.55843490979642     -2.22070114130362     -0.18037235895625
  C   4.68363560256816     -2.81001706963385     -0.28347334521909
  C   5.85847746051854     -1.87101242832907     -0.20254747949636
  N   7.09730338139218     -2.10719590478376     -0.27006299249585
  H   1.52561800754150      2.26297833468444      0.82846305941353
  H   2.59465752636082      4.50473190940951      1.14987347024321
  H   3.85056448131179      3.30249041707532     -1.36846112572141
  H   6.73872059023175      0.93612908957695      0.13895469066472
  H   4.76797265820607     -3.88316262191571     -0.41556248196203
  H   7.27828629595316     -3.10403454665224     -0.39866988818404
