27
Coordinates from ORCA-job 12856optt
  Br  0.71844385530688     -1.44987982117593     -0.08402552787442
  C   2.17892171203632     -0.27206434174091      0.02773984149793
  C   2.41078781878306      0.66348559053172     -0.90654148021723
  N   1.49093614429455      0.99617641839162     -1.91712039248428
  C   0.49823294989207      1.97091917586468     -1.43147006990912
  C   1.07343859431832      3.16321935182642     -0.63601313788234
  C   1.03291075986472      2.97402398941387      0.86924942298387
  O   0.15783593739758      2.34021695791862      1.39751719076565
  N   1.87280580415727      3.75282445319532      1.69733292599446
  C   3.23445259798089      4.03868635143416      1.76382661080393
  O   3.63829824455380      4.71430321252165      2.67644267258772
  C   4.20799940371881      3.42987223614198      0.76180090235862
  C   3.94492818586190      1.95896780266760      0.54019942839482
  C   3.84306120702948      1.10363699632358      1.56816002848140
  S   3.10977727921605     -0.45686085456265      1.48275931493098
  C   3.61102835779840      1.52577064402007     -0.82381274070310
  N   4.13015775699872      1.95273199980235     -1.90371838636013
  H   2.01279993996777      1.39054434964926     -2.69323979055950
  H   -0.22329804834229      1.45449157675251     -0.79815417465404
  H   -0.03318374253224      2.34053444135197     -2.30668273009488
  H   0.41772956736640      4.02871962449004     -0.78034975300153
  H   2.05280422522406      3.47134885816045     -0.99819306133706
  H   1.43614937099017      3.91417029648039      2.59863055308778
  H   5.19666394690311      3.62833907232609      1.17396336966333
  H   4.13332319004678      3.97310232625812     -0.18203525159874
  H   4.14301842057983      1.38302773202802      2.57255551875743
  H   4.91097652058757      2.58469155992898     -1.72882128363155
