25
Coordinates from ORCA-job 12859optt
  Br  1.22080551428568     -0.13530807362747      0.15124090213949
  C   3.09395495857034     -0.12165160806144     -0.03994737442182
  C   3.79604282732628     -1.25579089437231      0.19879041745469
  N   3.27748878984377     -2.47416114168023      0.65793160569356
  C   3.25256623570605     -3.56239691610910     -0.31935089943114
  C   4.62775045990451     -3.66060002185858     -0.97964253394532
  C   5.69451652380289     -3.46683058439144      0.07081994129886
  O   6.28332537330245     -4.33604409402771      0.62137207339510
  O   6.02690420533015     -2.15873784418936      0.35983514012073
  C   5.22747905917731     -1.11351797741176      0.03637715955042
  N   5.82270126303729     -0.04695661964409     -0.33613697972639
  C   5.09930997479055      1.09302148795036     -0.62591780716652
  N   5.58950979033313      2.16388593966591     -1.09639699475107
  N   3.70055216709818      1.05796785185017     -0.36884342180659
  C   2.95711072474503      2.27370728128060     -0.66198283513325
  C   2.38084943087684      2.24426030709933     -2.01359672406135
  N   1.91415973298051      2.19730116094448     -3.05791354250448
  H   2.39901229167747     -2.36407794349522      1.14363819020588
  H   2.48789898402420     -3.42168082444218     -1.09165446765417
  H   3.03981073013785     -4.48384382144314      0.22117909203204
  H   4.73711829886474     -2.90478639169308     -1.75912994931301
  H   4.76962165338577     -4.64230699369686     -1.42372038649128
  H   6.59293607573921      2.05425090446356     -1.20141859771517
  H   3.66455839865758      3.09795084939061     -0.59997217984430
  H   2.16001653640213      2.41334596749899      0.06444017207508
