17
Coordinates from ORCA-job 1285optt
  C   1.05682126039564      0.07217874225742     -0.14712751101844
  C   2.54586899817436     -0.09129375490520     -0.04298951015402
  C   3.00965625841464     -1.52484287953478     -0.05759623267156
  O   2.61165465128682     -2.21461131383413      1.11908907024676
  C   3.35921921347330      0.95841052642990      0.08690525058017
  C   4.85275350143116      0.95870699111946      0.20551084841841
  O   5.46563946838496      1.62853775033283     -0.88788378361852
  H   0.75750593594856      1.11433462761726     -0.04939092977272
  H   0.55796762867505     -0.51429077138887      0.62686703023787
  H   0.69990321929788     -0.30434201959346     -1.10935237814927
  H   4.08731767429798     -1.60739847979966     -0.20760722413657
  H   2.52072763995323     -2.05282526662324     -0.87878219035073
  H   2.98215573328698     -1.75404969403350      1.87833354288071
  H   2.91514585218324      1.95103679398892      0.08613380919405
  H   5.25703097568715     -0.05021753775862      0.31649881386937
  H   5.14884786298908      1.52565244276452      1.08989724741792
  H   5.12378412611997      1.24801384296116     -1.70250585297342
