24
Coordinates from ORCA-job 12866optt
  Br  1.47785671107922      0.29794947053578      1.26075694065242
  C   3.26453023012711      0.33287529699980      0.62421952744741
  C   3.80500746936361      1.55984027110776      0.18555205626591
  N   2.97391966613464      2.67038136931043      0.16687771092894
  C   3.23433968438749      3.87545209243841     -0.09357862088378
  C   2.14552966909200      4.90517453095408     -0.15957980298103
  C   1.90347753674018      5.36105504674196     -1.58651640355345
  O   1.77673432235376      6.50756612301683     -1.90103712000752
  O   4.42714545438747      4.45308188305148     -0.39837635347260
  C   5.62135491040925      3.80117653161290     -0.03297542259187
  O   5.79825872635600      2.58854177968677     -0.71359577414522
  C   5.13277011398348      1.49469385927582     -0.24574318170011
  C   5.81925529360040      0.29022081711754     -0.24563295113161
  C   5.15663445088756     -0.83616652092306      0.19417637525330
  N   3.89777498271140     -0.81157760770372      0.63351254982867
  C   5.71653750027585      3.64444862849944      1.42385209854493
  C   5.80590511748971      3.52167739093862      2.60897531745144
  H   2.39606130602138      5.77791616742718      0.44227484388253
  H   1.22875135830732      4.44112277155106      0.20642349865074
  H   1.82286739343209      4.54921466802361     -2.33482130959018
  H   6.41033301663078      4.45494665620887     -0.39615404166683
  H   6.84529896754437      0.26046804677898     -0.58314611995029
  H   5.64974675610878     -1.80051751917566      0.20751090045854
  H   5.88490936257602      3.41045824652508      3.66502528230967
