22
Coordinates from ORCA-job 12869optt
  Br  6.58054275033216      3.49154779687600      0.45495407699387
  C   5.30118205292364      3.47371330953415     -0.90138524546319
  C   4.43343458740900      2.43414780741773     -1.08545308087718
  N   4.87967815774670      1.20216760784888     -0.58371848875789
  C   5.40930307758597      0.66660904878734     -1.63481504567395
  C   6.86661059167932      0.64031792562125     -1.65796083495800
  C   7.25155574113146      1.55101326003751     -2.57494207415942
  S   8.65233514400609      2.59521412899569     -2.44979133311803
  C   7.91702794317991      4.26957911825441     -2.33109654592714
  N   8.78386938664996      5.12921377779320     -2.03142197338357
  N   6.60535380346621      4.50944800125338     -2.70844192512527
  C   5.52905225488713      4.23256063604586     -2.11684310583247
  O   4.37620161397825      4.56584766722095     -2.81687610902871
  N   3.31844129909923      3.72755658417253     -2.80598177959770
  C   3.38523016918612      2.67338543848702     -2.07442915222496
  C   2.22020599088283      1.75537125357545     -2.26088815418278
  O   2.17227022187933      0.65523752924933     -1.79335505913683
  H   4.93634454894248      0.74087319605221     -2.62345225738879
  H   7.43359881504623      0.42678610604803     -0.76223414082739
  H   6.57525490019541      1.79704179016064     -3.38934228903042
  H   8.38648493885471      6.06731869740788     -2.03934271852438
  H   1.42402201093780      2.18204931916050     -2.89218276377578
