27
Coordinates from ORCA-job 12867optt
  Br  1.39769614238575     -0.49843346263837     -0.59076093383426
  C   3.24003826746013     -0.20173271471726     -0.35231717452118
  C   3.76667457089326      1.01937251274227     -0.10941973995181
  N   5.13499617806651      1.14347630856771      0.08265142011396
  C   5.85147891177977      2.41963284002381      0.11060140364517
  C   5.03736693186619      3.58447699658216     -0.40877611652381
  C   3.79256337464945      3.76331325224412      0.43843274540593
  S   2.66595583388530      2.43875347130830      0.08815409887699
  O   1.85399081177738      2.20568418635611      1.24389057527725
  O   2.07787454928286      2.70788565861758     -1.19025186712739
  C   5.93438096265625      0.00523937362551      0.22458997068252
  N   7.15487679194490     -0.01955553377570      0.59665836080482
  C   5.26513830733408     -1.24471101685036     -0.17249912814078
  N   4.01341972660638     -1.31925070920306     -0.43982536674329
  C   6.09980701434056     -2.47189225033664     -0.26205418174961
  C   5.52620915879988     -3.75432814354184      0.18236077676427
  O   5.65766039901101     -3.44633499355708     -1.18381150275226
  H   6.74869032856844      2.28588674381981     -0.49756797773129
  H   6.17525532669264      2.62610638269062      1.13678352794470
  H   4.76135213971210      3.42935917804876     -1.45440026510829
  H   5.65418770559707      4.48163726917748     -0.36301526080590
  H   3.22169983864811      4.65695536066505      0.18527486287526
  H   4.00601421992655      3.74965775255059      1.50708541069772
  H   7.52504838538607      0.88216445385289      0.87476244927424
  H   7.16794715901764     -2.31473612461789     -0.20641303316993
  H   4.50686961168796     -3.74973563725161      0.55224926344076
  H   6.19280735202365     -4.52189115438296      0.55861768235620
