27
Coordinates from ORCA-job 12864optt
  Br  1.22052724080079     -1.99103962361671     -0.75844349874622
  C   2.40475946754023     -0.56290508139661     -0.51036495826507
  C   2.32334010567443      0.54396257785958     -1.25487693874533
  N   1.30336978886721      0.89704664007237     -2.14864166143342
  C   0.23654258887839      1.72512921162867     -1.50507148290927
  C   0.90989263563737      2.64212144891993     -0.49150309949615
  C   0.39945288261174      3.87386388640945      0.16819380680142
  O   -0.59643555150084      4.49050546370998     -0.00041022274983
  O   1.37180102568651      4.37466110871091      1.03710476936270
  C   2.42897713698598      3.62204790328051      1.55097890100343
  N   2.46654820980108      3.33380522766052      2.76884523068501
  C   3.62692541533742      3.23993446552765      0.66573691262002
  C   3.60617194528976      1.77481212836644      0.27831780633812
  O   3.23638055912322      1.56392850901357     -1.02527966007577
  C   3.74085701640652      0.73219888477405      1.09338524799528
  C   3.36570040023108     -0.61557675515680      0.61986612037074
  N   3.68062226418841     -1.72064902624209      1.15752638083245
  H   1.69229724401438      1.38869145708077     -2.94510612131110
  H   -0.47435315070124      1.05322856127279     -1.02592843009888
  H   -0.28190303268657      2.26971534885964     -2.29133132777988
  H   1.78743847576748      3.04437023786635     -0.99173251995120
  H   1.27198520060926      2.00602707569601      0.31799047443471
  H   1.62524451966735      3.65220218667948      3.24958748551644
  H   4.50761878331067      3.44629205609986      1.27061474980301
  H   3.66731033988812      3.85835426056094     -0.22960974418333
  H   4.01104354918149      0.87872634976421      2.13073556820819
  H   4.30688493938972     -1.57345450340151      1.94841621177393
