25
Coordinates from ORCA-job 12879optt
  Br  1.14766418241984     -0.46429118903642     -0.06717415784152
  C   2.99481945884258     -0.20954186385463     -0.04614053922758
  C   3.55457232074048      1.00314151702858      0.05615838638669
  N   4.98063625960348      1.10727776896524      0.05424514145550
  C   5.74914437804005     -0.03473261853653     -0.13128441661987
  C   5.15294401882892     -1.22445845149291     -0.22715002102040
  N   3.75915862418338     -1.33896833901555     -0.14148176200112
  C   5.31382191736302      2.42060008316089      0.13137630228007
  C   6.74555075707844      2.83773082113823      0.07854965236684
  C   7.38699471275519      2.52056904818709     -1.24954253578821
  C   6.72899028253985      2.32017582538645     -2.43079317535162
  S   7.85580074887976      1.98108860832494     -3.64981386709070
  N   9.16929546185171      2.08169899280143     -2.67824659264735
  C   8.78422885877454      2.36811103345243     -1.45942259012996
  C   4.19516723416095      3.20680377092104      0.20570783863823
  C   3.00523169045559      2.37502544706642      0.17112744927732
  O   1.82525408468747      2.68271502276208      0.22363553823205
  H   6.81915596744346      0.08023813724979     -0.20233019235918
  H   5.70569343248881     -2.13759563754357     -0.37027463235990
  H   3.30580905431965     -2.22262311509843     -0.29585953586099
  H   7.30563379281701      2.33991920574105      0.87657132298833
  H   6.79709612995722      3.90874050845749      0.27910189190203
  H   5.66375722754717      2.35799689331226     -2.60757831281005
  H   9.53511122359956      2.47446265964885     -0.68459087494954
  H   4.19146818062176      4.28091587097373      0.28720968253092
