21
Coordinates from ORCA-job 12875optt
  Br  1.37906046778172      0.27280078073508      0.78724467881535
  C   3.14586478235476     -0.10314635851753      0.27782972372121
  C   3.67647760517725     -1.31242189023099     -0.05171162658128
  N   5.11741126341397     -1.32785326319089     -0.15106996064608
  C   5.80748309045806     -0.12855621692484     -0.42026299225122
  C   5.21313973782803      1.02789691524704     -0.17689690810835
  N   3.91591103678904      1.02773553372267      0.32983600520161
  C   5.80995347171863     -2.46210204290498      0.03564540770865
  N   7.08575964787340     -2.62587972512950      0.09513847289788
  C   7.22176565804559     -4.03096807365410      0.26494415244778
  N   8.29589508259885     -4.67868648658460      0.39024774259930
  N   5.94485895480727     -4.69831459588793      0.27387969627392
  C   5.10175631359296     -3.75003836347524      0.13287356173133
  C   3.67658039821607     -3.77655368690199     -0.06741967530514
  Br  2.89431092531851     -5.46654143242176     -0.22444548900030
  C   3.00871861469647     -2.60023085080043     -0.20490668695638
  Br  1.20578720277833     -2.65406974439710     -0.74174908562048
  H   6.80768084803200     -0.24223391886974     -0.80655205032113
  H   5.67045296120656      1.98600435244699     -0.36264811552779
  H   3.47788821610342      1.88652856232763      0.61266871670227
  H   9.07924372120905     -4.02736949458776      0.34635443221885
