23
Coordinates from ORCA-job 12885optt
  Br  4.59186130519029     -0.82755230253525      3.08536423051561
  C   4.98835524200614     -0.38985439089998      1.30374135106449
  C   5.94344425714562      0.48238727510828      0.96410168767936
  N   6.15383400177830      0.73295823642556     -0.40997931028935
  C   6.06807515338900     -0.45391589207146     -1.13470895922648
  C   4.79417352047036     -1.14816652873677     -0.81566050127803
  N   4.25287368601041     -1.07206449220496      0.33713629840310
  C   7.11053860448633     -0.97954408106495     -1.78858946307075
  C   7.27284337526873     -2.44167145112761     -1.79793241799727
  N   8.03835435531722     -3.03252044430169     -0.96772814889465
  C   8.72446548576697     -2.37457656407875      0.06592030481523
  N   9.86859397279033     -2.66029575924793      0.49088985239061
  O   8.00015349432570     -1.37347279230345      0.68992741127014
  C   8.22294093848382     -1.05970645183170      1.99323212797697
  N   7.79142933616717     -0.00154424195333      2.51776727246576
  C   7.10046429308058      0.98194766258274      1.79183455808496
  O   7.48203255550607      2.11554383862501      1.72926520633749
  H   6.96297194549365      1.31315469997368     -0.59112593994265
  H   4.29727226282492     -1.72972821325212     -1.58712212144078
  H   8.03672171858661     -0.41401401772483     -1.78832088424765
  H   6.71831518852201     -3.08237456156905     -2.48200803383739
  H   10.25020367744211     -3.44435535318736     -0.03174957788010
  H   8.77908162994761     -1.80263417462406      2.55574505710138
