23
Coordinates from ORCA-job 12889optt
  Br  5.05778468680088     -2.58025628466371      2.40303133310753
  C   5.59859688218016     -1.33370809686695      1.10334925537579
  C   6.70715186119605     -0.56417324190979      1.29607251220489
  N   6.99969822177720      0.36170536792634      0.31971508702415
  C   6.61034065549976      0.17409240044994     -0.98560496594747
  C   5.46084555082456     -0.70190883636932     -1.09933330495919
  N   4.96635010326249     -1.35197437348456     -0.09583353539177
  C   7.48199732463445      0.52394173479749     -2.00528172713042
  C   8.01354158819167     -0.78493632234344     -2.49895268589903
  O   7.50927346235691     -1.60682634981546     -3.20721768301144
  C   9.16512302691206     -1.03173692566454     -1.51374699907026
  C   8.79159206701410     -1.59713792296570     -0.36534086142057
  N   9.44640502023977     -1.50307156363983      0.88659738593279
  C   8.83330172810635     -1.12082162209008      2.04806417963874
  N   7.63551753004115     -0.72695191643768      2.30452215521137
  C   9.74105198336586     -1.20201786751684      3.18563813308731
  N   10.50499145114050     -1.26381940195728      4.03589455978518
  H   7.85026794521033      0.88959688646016      0.46420005753594
  H   5.00716374820299     -0.82586106465600     -2.07400231161622
  H   8.28016899468174      1.17974409024135     -1.66505831422250
  H   10.08252877590585     -0.46063637166389     -1.60325643356616
  H   7.82258273196646     -2.08395201947525     -0.30464354956085
  H   10.44372466048858     -1.65329029835494      0.93918771289219
