23
Coordinates from ORCA-job 12880optt
  Br  2.87574883695240     -1.05102016044877      1.87609210585558
  C   4.02829063610636     -0.62590768422829      0.43437584945338
  C   5.29491971533878     -0.07614033994139      0.66840222639985
  N   6.01358376819617      0.25838016775202     -0.38509666327146
  C   5.69973155640864     -0.17922056315253     -1.60135790692307
  C   4.45025738791367     -0.75053819158742     -1.80236352106189
  N   3.60719497223520     -0.90187839062668     -0.77798073778610
  C   7.01724324985225     -0.32025755424671     -2.31750295950211
  C   7.63997125523632     -1.46016792409739     -1.97709619917672
  C   8.94665188371311     -1.37072107690121     -1.28746000219856
  C   8.83098324081021     -1.40121822935805      0.06592688721923
  N   9.66301637079971     -0.66536720967150      0.93248459102576
  C   8.85076766177676     -0.21559800296797      1.83076794330242
  C   7.48483876638442     -0.71693603250969      1.57046801756643
  N   7.53828796371013     -1.53963087801734      0.58266733751052
  C   6.13801032841260     -0.14135740976755      1.93882659721751
  N   5.86524066275499      0.23953384719815      3.10775840281982
  H   4.12484827531477     -1.11736226965033     -2.76747425446918
  H   7.58215195285832      0.59435805731642     -2.45827842711278
  H   7.02596558847357     -2.30314253292197     -1.68374878673053
  H   9.84607447576150     -0.97001556121617     -1.73826720126416
  H   9.15576068452246      0.45986923963926      2.61749756371085
  H   4.92646076646757      0.63533869940512      3.16535913741519
