26
Coordinates from ORCA-job 12887optt
  Br  5.57177536954974      1.14928511036312      3.64275657871834
  C   6.01809635969051      1.67602472721255      1.89546079879649
  C   6.33003526953570      2.93296577240933      1.52938103665908
  N   6.68884492550300      3.14709877239163      0.19536348946613
  C   7.57257428921117      2.14560082669043     -0.41358255676611
  C   7.61039585375554      0.93906588136877      0.46960656174394
  N   6.30562002775203      0.63977655967788      0.97908734691185
  C   8.71922643336625      0.31546327669042      0.85854510279755
  C   10.06404290236118      0.90485428635546      0.60257836355576
  N   11.02067622925339      0.46192832878351     -0.07197679353836
  O   10.23214303617692      2.15132544886606      1.19780639758139
  C   9.95897618630225      2.23473806689806      2.53668890137630
  C   9.17431307079401      3.15857805853958      3.08332908509963
  C   8.34582503800018      4.11213867035128      2.31095553749899
  N   8.72677684845390      4.95452980631747      1.45061411674451
  C   6.84581145254916      3.88663314549283      2.55047885788053
  O   6.28444605703654      4.29581407371365      3.52732063406575
  H   7.01916901957910      4.08869728716305      0.03587584329263
  H   8.57406170081026      2.55008088055542     -0.56557843829503
  H   7.16987670460960      1.83664717348646     -1.38262632301167
  H   6.22251438400614     -0.27838344832159      1.39490802918196
  H   8.67180801591425     -0.56811358522155      1.48605957335432
  H   10.76084477898637     -0.41416204839689     -0.52008010128587
  H   10.46309345409785      1.49079125149340      3.14625926935526
  H   9.03303851654839      3.12826887154070      4.15677665053551
  H   9.74601407615646      4.97335280557892      1.38399203828109
