21
Coordinates from ORCA-job 12890optt
  Br  1.13708364316655      0.29861814146600      0.07899066442166
  C   2.99547069820332      0.24370371121440      0.00810381435508
  C   3.75022069628320      1.34472940854692      0.08246192990913
  N   5.16983600605612      1.23045855485098      0.03415529465373
  C   5.74725796117920     -0.01894827607839     -0.23316396472338
  C   4.95443589669032     -1.08666505379822     -0.30722350501101
  N   3.57125587123672     -0.99231566168070     -0.12715965271347
  C   5.61575594119964      2.49938536987974      0.14118862578828
  N   4.72006803996295      3.42755600997473      0.25728664215440
  C   3.46850612363255      2.79392076423478      0.21688940576897
  O   2.38686886239389      3.31917848615723      0.29612965173018
  N   6.98482304277768      2.76285899040072      0.13785515561494
  N   7.86748905969998      1.89845768087890      0.69403212826001
  N   8.98876080051976      2.40351892586210      0.72036996254154
  O   8.93349852178561      3.67999350458645      0.17781670713565
  C   7.64552812598586      3.94278888677396     -0.21738481028213
  N   7.18604461381162      4.95027140264400     -0.78436519445166
  H   6.81444205497255     -0.07505066426029     -0.35633199343850
  H   5.34727333782910     -2.07031185066461     -0.50628986238246
  H   2.98089751135128     -1.79538847692846     -0.25792642519136
  H   7.89848319126202      5.65724014593976     -0.93843457413961
