24
Coordinates from ORCA-job 12895optt
  Br  1.68899561643314      0.44145716970022     -1.32079823794859
  C   3.27715007557678      0.13126517854080     -0.37201704569575
  C   3.74693393973385     -1.05784666870851      0.07579233569051
  N   5.09850299051412     -0.99628630740257      0.55055348778758
  C   5.47017716459858      0.15830120000460      1.27963847109355
  C   4.92793486254337      1.30681182049494      0.89556105869322
  N   3.99171535937656      1.28212216044701     -0.13650099227491
  C   5.98592357952474     -1.89610540011297      0.06473687079152
  N   5.66081668669701     -2.63072082262546     -0.92156042802725
  C   6.04744946818099     -3.95993519199351     -0.95557593114928
  N   6.55527711598064     -4.62089222988555     -1.90365266496851
  N   5.72521481745038     -4.61386592011124      0.26695275166226
  C   4.64906379031846     -4.34295941619241      0.87611246113247
  C   3.41382913449082     -3.58500761394728      0.51325683496196
  C   3.01444854088904     -2.32508041706368      0.20795187392948
  C   1.57112372892926     -2.24143758209519      0.14430757813117
  N   0.42404636530466     -2.24819716513865      0.14861118815584
  H   6.17092001381873      0.05349048625236      2.09449173542896
  H   5.12872112919006      2.25924532434583      1.36161867125553
  H   3.62738746683423      2.14355249047532     -0.50494890890532
  H   6.91100350086628     -1.97713136106453      0.64427427681726
  H   6.71805893087806     -4.00558686823010     -2.69798028430417
  H   4.50294518339607     -4.87269071745328      1.82038318638638
  H   2.57236053847410     -4.25950214823613      0.65679171135610
