25
Coordinates from ORCA-job 12893optt
  Br  1.62478813148193     -2.32364374014694     -0.29148435513520
  C   3.26023551726335     -1.45916514988613     -0.57214025210888
  C   3.97693416166145     -1.52878173185153     -1.74434355078268
  N   5.08493277512880     -0.62198910428506     -1.81130742965914
  C   5.95469825521039     -0.88745229932188     -0.71397130094461
  C   5.37950119154605     -1.24169013654409      0.44330213826915
  N   3.97930814195197     -1.11237066203060      0.54510276123457
  C   5.99828764484144     -2.35494897925325      1.24516453333676
  N   6.92330938958441     -2.30573977228191      2.09656779637833
  C   5.39826269748884     -3.65257600227091      0.75041546656623
  C   4.22562273448068     -4.16086935454084      1.45015382664663
  O   3.66417945644091     -3.55551230885885      2.33871380218588
  C   5.78386197718458     -4.13207147180875     -0.45371475133130
  N   5.25894813067186     -5.20262403273500     -1.14377325507203
  C   4.32426192973610     -5.12592202559298     -2.00003883183489
  C   3.59014500481902     -3.87110435156138     -2.29802604978993
  N   4.23805779117967     -2.78430280908654     -2.19581044977549
  H   4.81560968827958      0.34278355200925     -1.94879242324357
  H   7.01176520350598     -1.03184508966291     -0.89987125441689
  H   3.56391324559628     -1.33892895600035      1.44136278838320
  H   7.18815977775741     -1.33771267327393      2.28505224050871
  H   3.85634720998230     -5.14554301977305      1.11680033661979
  H   6.63834895460767     -3.66880935866497     -0.94427613258659
  H   3.97810339414141     -6.05505010572709     -2.44855188056626
  H   2.50841759545785     -3.94913041685027     -2.41453377288179
