23
Coordinates from ORCA-job 12899optt
  Br  1.33457475008796     -0.76875910802599      0.87432463612728
  C   3.09543825453495     -0.40095298488702      0.34765074809237
  C   3.59082982793522      0.82151438857845      0.13803846482076
  N   4.94428501531819      0.97203595869003     -0.23665828178032
  C   5.80560851036063     -0.10491811015606     -0.00889605664132
  C   5.29678493386550     -1.31428731025508      0.19753447650449
  N   3.89447459459411     -1.52766759541397      0.16830221139683
  C   5.25141747698922      2.34053038513445     -0.23191651977056
  N   6.36971384694555      2.90294830889945     -0.43120218278423
  N   4.06562126926376      3.04674151802344      0.03254759298636
  C   3.11457794855889      2.20260223912591      0.23562180766873
  N   1.83646541400898      2.56877835949845      0.58129071616096
  C   0.84637419115669      2.26957464630822     -0.13944406488491
  N   -0.47074067563080      2.45923492494008      0.12525409165026
  N   -1.27009458667567      2.00913222839475     -0.88988975822521
  C   -0.44384708751493      1.56143800106216     -1.74488026102938
  O   0.85994606362543      1.68500969340660     -1.37920845092705
  H   6.86588775323140      0.09291431922327      0.00097550033274
  H   5.90956242796672     -2.18092503204051      0.38269780180818
  H   3.56072186860112     -2.36543699948976      0.61802327414685
  H   7.10281257070511      2.22730418722409     -0.62932997777536
  H   -0.85612790729420      2.88328515740722      0.94985417939519
  H   -0.66928646063390      1.11390282435178     -2.69668994727268
