24
Coordinates from ORCA-job 12904optt
  Br  4.42445610829147      0.71457953945584     -3.58029970711465
  C   5.05538746483258      0.81590456658947     -1.82052277547732
  C   6.12746938055416      1.51088098909549     -1.43721642595593
  N   6.48228778651928      1.47387015231876     -0.07078095660844
  C   6.42154933007380      0.11499782800075      0.40443409259827
  C   5.32781147790438     -0.59710520603948      0.06486723978994
  N   4.49470092304641     -0.07290110410073     -0.89064992171668
  C   7.59019210442170     -0.48892007268240      1.07090008132552
  O   7.50387035830515     -1.36500894427252      1.89749987524943
  C   8.99034532932371      0.01573502447394      0.64460653250851
  N   9.98472230334225     -0.12130705255284      1.40740749190304
  C   9.04577853625276      0.67892412893502     -0.67445483290314
  C   9.46313608593000      1.92500685226008     -0.79530725923013
  O   9.14258526153316      2.72486623095556     -1.89270783481702
  C   7.81370841109947      3.05716964531013     -1.90554525551873
  N   7.33088083578186      4.17372341181219     -1.63759876443542
  O   7.03097291195619      2.02103102531806     -2.32513179966958
  H   5.91230374033937      2.09441899283551      0.49371279440629
  H   5.11770456608044     -1.58910452135856      0.44129294466670
  H   3.68043355186497     -0.58895096287589     -1.17955237131611
  H   9.68581536048554     -0.58527686626254      2.27105181564688
  H   8.49541943143019      0.22168837852674     -1.48888195835127
  H   9.97474895326812      2.46030048015842     -0.00443172170590
  H   8.06171978736294      4.81947748409900     -1.34969128327425
