26
Coordinates from ORCA-job 12901optt
  Br  7.64833850016598     -0.93702978612905      2.43789870976083
  C   7.10089094852567     -1.94577151508222      0.93543821648726
  C   6.68715581013031     -3.23090664439473      0.95933199260813
  N   5.84562172050050     -3.58801887731417     -0.14953729623897
  C   6.32713790528790     -3.19794263975136     -1.50190398344902
  C   7.33776326498661     -2.09848102942337     -1.35250715429263
  N   7.45449593199602     -1.41438225999038     -0.28093379901489
  C   8.58495705939773     -2.00479423603457     -2.21568964771221
  N   8.73741199884236     -1.41891134399884     -3.31972518401997
  N   9.68042184346402     -2.54831379839239     -1.51954869888508
  C   9.42525056174788     -3.42638908059305     -0.45463790271858
  O   8.57818588110331     -4.28643442953863     -0.60091495573080
  C   10.11961174328835     -3.22722030448763      0.80706738653337
  C   9.64530738760331     -3.63096731088100      2.00789539361671
  N   8.45565653553605     -4.16098417647664      2.42585205806639
  C   7.17883707925667     -4.30685817565206      1.83683896765911
  N   6.52586198614719     -5.34500731338477      2.15017056445893
  H   4.98326192891049     -3.07624553300315     -0.01057847731770
  H   5.45720607474105     -2.84305970933274     -2.05715692032932
  H   6.76963363334505     -4.02976562602262     -2.04593919899695
  H   7.86660343563421     -0.99768875236856     -3.63381990792627
  H   10.53191132621235     -2.00742817736297     -1.54860796554807
  H   11.06362918925270     -2.69978729284489      0.80990316943105
  H   10.31638603706944     -3.49057916643870      2.84902087742888
  H   8.49999686489458     -4.64669675748777      3.30944175750753
  H   5.60346535196014     -5.31533606361372      1.72064199862228
