23
Coordinates from ORCA-job 12908optt
  Br  6.19845949498201      1.49626665644578     -3.98254318799556
  C   6.53649437955845      2.04041344970042     -2.20471392563638
  C   6.70208339190860      3.38477499316282     -1.87594464913969
  N   6.73113326758301      3.71363696960692     -0.57735069392726
  C   6.59093955500248      2.60362976388655      0.37610939735458
  C   7.43645048770091      1.49631711237515     -0.18224849674376
  N   7.24030136831533      1.19570036848043     -1.42251121847049
  C   8.67194538418202      0.99351585293498      0.46019396389956
  O   8.80697836630534      0.81322577658494      1.64082034264644
  N   9.72541179175359      0.71038141870531     -0.44137188013844
  C   10.00851968676673      1.31522707068206     -1.64241398944946
  O   10.74747025115727      0.86114976233176     -2.47778682953532
  C   9.45789133140817      2.74195984599497     -1.81526734325134
  O   9.37347624937524      3.48935473379010     -0.87610441982412
  N   9.13833436734621      3.09959501822494     -3.10464727351727
  C   8.20864592200674      4.10469446255486     -3.42283500182724
  N   7.10880627972439      4.32344561395894     -2.82909981446938
  H   7.36072990498000      4.46968040783242     -0.33721003448390
  H   5.54127247727578      2.29477974850552      0.37430320294490
  H   6.88990965663226      2.92775452256067      1.36783757714155
  H   10.38824600610781      0.00719400463746     -0.14041503036181
  H   9.53298886439658      2.53651572294622     -3.84864846657553
  H   8.47251151553096      4.71678672409674     -4.28015222864005
