23
Coordinates from ORCA-job 12909optt
  Br  5.33854918232511      1.89157835713985     -3.80453363992553
  C   6.23671345537514      0.58362335675822     -2.78101985207290
  C   6.46129693296214     -0.69051758771486     -3.28768927162355
  N   6.94812903357189     -1.63000773219767     -2.46550234052838
  C   7.11206320604952     -1.24718343809203     -1.06430882806562
  C   7.73929153304500      0.11035793260146     -1.14466639059450
  N   7.15214068595665      0.99147515031249     -1.88587481777638
  C   9.15697405461468      0.31467634574252     -0.79802018835087
  O   9.70098581553063     -0.11063649485320      0.18781853297564
  N   9.90499776521846      1.03414526925550     -1.75464392193363
  C   9.80527019356321      1.13972152710940     -3.12443426022340
  O   10.48715531707485      1.89330843255311     -3.75854181780446
  O   8.93363952279038      0.24255293038083     -3.67673487813683
  C   8.56828358601596      0.30660285846123     -5.01403942613545
  N   9.10555423970602      0.93405306252243     -5.95207682979972
  C   7.37392832492868     -0.54363990328893     -5.37470010080806
  N   6.43894296137353     -0.99302074322018     -4.65168219151806
  H   7.53710224312572     -2.34514413235319     -2.87032616761733
  H   7.71691584812428     -1.98061988857085     -0.53997579044043
  H   6.11880796799184     -1.17884411987874     -0.61062449879554
  H   10.76563091038127      1.43251274143750     -1.40135505545230
  H   9.88871008791880      1.50954410337475     -5.64758046341903
  H   7.33991713235610     -0.73653802747966     -6.44348780195360
