23
Coordinates from ORCA-job 12910optt
  Br  4.47483122905451      0.69124974762553     -1.81886911169799
  C   6.15960077587581      1.36394981602833     -2.51767121440837
  C   6.67233161541026      0.61623264250693     -3.59144377751301
  N   6.75153836084985     -0.69933765924516     -3.44191182862121
  C   7.02156729293742     -1.08533038886735     -2.04169779683247
  C   7.58482798019364      0.12750619374812     -1.29118059952630
  N   7.22080167400945      1.33174600169308     -1.47680442291980
  C   8.74916092103741     -0.09556884989885     -0.34688940179737
  O   8.72147079422485      0.05179817692856      0.82431240914202
  O   9.90689459736442     -0.52047451238898     -0.96208113467470
  C   9.99296487294384     -0.60158928231188     -2.32510219417636
  C   9.67201745794548      0.37680108031723     -3.16265105009841
  C   9.56032548763870      0.09005843426983     -4.59967046471962
  N   10.38158735593515     -0.62740787008800     -5.23336579171471
  C   8.33168243544735      0.63724509475074     -5.33934432017904
  O   8.22425663285660      0.59682101052607     -6.51711149479858
  O   7.34241575716412      1.24986593893325     -4.58110829189077
  H   6.91768253145762     -1.36601231422840     -4.18676664948682
  H   7.73233816359949     -1.91167743433938     -2.04728163242030
  H   6.10760703688912     -1.40929090651259     -1.53530908005298
  H   10.33324842192749     -1.57069346829662     -2.67185847429849
  H   9.34533388572344      1.34119197609852     -2.79771575473552
  H   10.08451471951387     -0.73608342724898     -6.20647792257917
