23
Coordinates from ORCA-job 12914optt
  Br  1.77832129128182     -1.35053882176977     -0.43089597618456
  C   3.56789732301932     -0.77521743486498     -0.47903278174083
  C   4.50212668238833     -1.33636895107125      0.34102079005550
  N   5.79113598131554     -0.87527082582137      0.17929805266370
  C   6.23480217081375     -0.10050578057235     -0.89735096810957
  C   5.11757007613933      0.54707880065167     -1.56440833996330
  N   3.89244340476207      0.19504530703609     -1.36891532077419
  N   7.46694081097497     -0.00323678932976     -1.28940625169015
  C   8.26147758655374     -0.98730164470614     -0.66309186118675
  C   9.01956163099022     -0.93259719791617      0.47279720936928
  O   8.98866612114796     -2.13398552052500      1.11078378201660
  C   8.16398958978118     -2.94929856590140      0.38664210969868
  C   7.88405000228795     -2.35238433971271     -0.80413307161478
  N   7.21790466970834     -3.56546334770399      1.22304432942438
  C   6.03188547590848     -3.64341298690961      0.76238400259471
  C   4.88746888260197     -3.28204907574454      1.63445830860445
  N   4.20776412359907     -2.23374822046715      1.37424847444510
  H   6.47971748923156     -1.18927109943555      0.84715812248321
  H   5.33638838246734      1.31662337333563     -2.29542380503962
  H   9.54874096038870     -0.13800022707205      0.96846882597509
  H   7.18200570321847     -2.69866258752337     -1.54401274266748
  H   5.79882500322550     -3.57165278896302     -0.30179821426873
  H   4.64931663819432     -3.83778127501322      2.53716532590921
