22
Coordinates from ORCA-job 12913optt
  Br  1.13877312276556      0.04495764627761     -0.81391131407267
  C   2.93398679305588      0.06439322764985     -0.33212378520442
  C   3.58260489394086      1.20410007045395     -0.04091700406216
  N   4.92385270427909      1.12996635180411      0.35527781998609
  C   5.59435706338513     -0.07734215049064      0.43242400164268
  C   4.92310043366407     -1.18472530584997      0.08779510152594
  N   3.57805730792687     -1.13471319111267     -0.31032892804123
  N   5.53748993032565     -2.44520674049858      0.01132902304006
  C   6.87895787214273     -2.60123249426866     -0.33730282655252
  C   7.33035772440067     -3.84817374271734     -0.23276880774713
  S   6.08214300990187     -4.93684819542810      0.30711397138400
  C   4.90252156750170     -3.62607388214401      0.39088822698229
  N   3.67726279427262     -3.67454741147467      0.72482662505372
  N   5.39701992429353      2.32708186787366      0.61854696268003
  N   4.50183855302289      3.22662533573068      0.43996373425706
  C   3.28347330674231      2.63954374334430      0.01040077886814
  O   2.25574410668254      3.21613794931944     -0.24710450140686
  H   6.62457390771415     -0.05394745599381      0.74876082559034
  H   3.05273920250288     -2.00001124639563     -0.18602299936099
  H   7.42371178780272     -1.73873946803511     -0.68522990076721
  H   8.31859848982202     -4.19984869465205     -0.47237345515118
  H   3.36983550385419     -4.60439621339234      0.98275645135601
