23
Coordinates from ORCA-job 12929optt
  Br  0.89813426219152      0.22443236696389      0.76593818018508
  C   2.73164280566013      0.06696641818956      0.51463737377672
  C   3.49594187007766      1.09124403998786      0.12386510038226
  N   4.86755976003893      0.87995323144129     -0.09109073360254
  C   5.45163145859020     -0.35944379950097      0.13479536551564
  C   4.65242586593152     -1.34487052779292      0.53844238247710
  N   3.27928307076609     -1.17917678315029      0.78087726156052
  O   5.20779999160104     -2.54087436206395      0.92114631224408
  C   4.67139257138979     -3.70271609196408      0.51297862198009
  N   3.66752152401718     -3.78307792058619     -0.23431502562793
  C   3.20081654366249     -5.11484506670944     -0.57170357957659
  C   1.85910020030331     -5.32855841141648     -0.01410194048518
  N   0.81717011504663     -5.48328451574225      0.43431199936477
  N   5.46151573679468      1.99258783824790     -0.47746681424756
  N   4.63080007796057      2.95199219758105     -0.55500835770950
  C   3.32698931831850      2.50680426444864     -0.19293047479729
  N   2.25698568238401      3.18684359430500     -0.15776624242938
  H   6.51985361849508     -0.45309219231076      0.03037781423685
  H   2.69819997813525     -1.98100550938985      0.56329901522275
  H   5.23433830807062     -4.53802078339443      0.93013753904026
  H   3.85745978077580     -5.91121741501062     -0.20463896457835
  H   3.13374848605551     -5.20466328969355     -1.65665244388810
  H   2.45668897373343      4.14602271756063     -0.44013238904372
