24
Coordinates from ORCA-job 12922optt
  Br  4.72536861674728      1.76845010005270      2.45534542780533
  C   5.17967050819410      0.38460507599364      1.27886541349863
  C   6.37368303438384     -0.25881104304906      1.29225948700671
  N   6.51534435636108     -1.28453119676607      0.38243470910529
  C   5.76565055975724     -1.40975627702049     -0.76168752331277
  C   4.46336604788122     -0.76571366658566     -0.59530312501430
  N   4.20763196651233      0.04696144922294      0.36788002558014
  N   6.15935996790358     -2.01040250511453     -1.82737799483916
  C   7.50752378231980     -2.44528995673295     -1.92044789099278
  N   7.84894963221352     -3.57132622754000     -2.38712757112036
  C   8.53520393593620     -1.48989793125779     -1.40403093773105
  C   9.55930465966662     -1.84716735880994     -0.62368702558086
  N   10.33792866438996     -0.89682817123307      0.06023731681821
  C   9.90730135710648     -0.35484434842604      1.11476326634602
  N   8.72523194709488     -0.75080762455808      1.80057780330971
  C   7.66524475053975      0.16443433631865      1.96024186192318
  O   7.82876369620097      1.25049056701017      2.43292535090223
  H   7.43725680415973     -1.67328009038536      0.28452807350005
  H   3.69800271614206     -0.95487003009011     -1.34039509101103
  H   7.01640632473451     -4.10049224557940     -2.64851727909714
  H   8.30959091846382     -0.43246363195490     -1.51137287891315
  H   9.82990668884715     -2.89339494735042     -0.50512304463520
  H   10.43715293717901      0.47402008914537      1.57137178287985
  H   8.47915612726478     -1.71708436528960      1.65363984357247
