22
Coordinates from ORCA-job 12927optt
  Br  0.99014001544981      0.00214273412783     -0.22353466522803
  C   2.84530053279248     -0.00651148853004     -0.05500166914129
  C   3.56684788684572      1.11757822884716      0.03863347353337
  N   4.96654672962070      1.01242944307303      0.21422195258781
  C   5.59958996839726     -0.21530579787892      0.15057023079359
  C   4.84513869249107     -1.30557935256820      0.03527588530653
  N   3.43786386564819     -1.25846404068538     -0.06916066469544
  O   5.43560286878406     -2.51963973442382     -0.21174140734124
  C   5.13266327180721     -3.57799877506505      0.57030507308086
  C   5.78007432137146     -4.78047492699386      0.49739064016744
  S   5.05331814492102     -5.78073271714983      1.63420511511358
  N   3.98100430596731     -4.62789659894838      2.12903726084042
  N   4.13729857521037     -3.52931131416243      1.48633950515147
  N   5.55248170902559      2.19862263191111      0.27963897425541
  C   4.63197023278754      3.11571226790631      0.18726187377421
  C   3.28568697956124      2.55743379595824      0.02036091767927
  N   2.13425476764220      3.09861012745636     -0.10671903167989
  H   6.67729627527533     -0.23145565472738      0.13753318078376
  H   2.94279778867083     -1.98485673715561      0.43846122002168
  H   6.60012773179234     -5.05533405207664     -0.14311478642337
  H   4.89547574954079      4.16063427892108      0.22349907812831
  H   2.21351958639739      4.11339768216445     -0.07046215670847
