17
Coordinates from ORCA-job 1293optt
  C   0.95050938867572     -0.06031715965258     -0.15828212628593
  C   2.43502728616084      0.05735584686256      0.01474600875542
  C   3.10336742701509      1.20579054262901     -0.11485193235577
  C   4.58796670706752      1.27160456832356      0.12857377859535
  C   5.27352202923895     -0.03628184349510     -0.25967091951264
  C   4.50520960781744     -1.22124945111661      0.25923339555111
  C   3.17894788145911     -1.16151673490154      0.37413553231334
  H   0.70708367247222     -0.77578619176367     -0.94735333618588
  H   0.50280191154563      0.89968349690511     -0.41172648138726
  H   0.48498219646937     -0.42760218556468      0.76000371005991
  H   2.56900727377455      2.12200975524602     -0.34214795835891
  H   5.03148180755412      2.10498742286581     -0.41730298289622
  H   4.75970100899433      1.47054911654988      1.19468309867691
  H   6.30122252151713     -0.05014197399476      0.10442605577415
  H   5.32738854629478     -0.11247923468626     -1.35362715638000
  H   5.03865892991441     -2.13601959128008      0.48872550794862
  H   2.61312180402874     -2.02458638292664      0.70843580568779
