26
Coordinates from ORCA-job 12932optt
  Br  1.06017911602794     -0.45909460863039      0.02873790171329
  C   2.91034158623147     -0.15409515043886     -0.12461298484765
  C   3.50710875180699      1.01618086712836      0.24704535286005
  N   4.88434971750644      1.13568526671422      0.24822154035452
  C   5.25747227842434      2.37636277802668      0.76141329576523
  C   4.14232118975343      3.04468147263641      1.05326356507842
  N   3.03945076568947      2.23685759921021      0.72955328856894
  C   1.72148274132835      2.74754976387563      0.63066873269575
  C   1.09056000884665      3.45339349227604      1.84727778159248
  N   0.40283881889010      4.48179587629098      1.04021175420093
  S   1.43580834597873      4.32748663152454     -0.26624860506921
  O   2.58257850931735      5.18616740648750     -0.14636232984645
  O   0.75163053301718      4.26993404493448     -1.51313944313771
  C   5.68813807919143      0.11103221215735     -0.17830394702647
  C   5.14914497363152     -1.03886102914195     -0.60208018490171
  C   3.70564237762296     -1.28159317113790     -0.59904459418136
  N   3.14479796373809     -2.37941495035529     -0.95559199397919
  H   6.29068969575715      2.65647028100828      0.85692673152563
  H   4.00958410674235      4.04743162692909      1.41332804299821
  H   1.04852135461047      2.01262306993121      0.20510330569282
  H   1.85477910330944      3.85557406419476      2.51405326037538
  H   0.39277995994699      2.82803069015484      2.39903996129073
  H   0.28685153927000      5.41077740527086      1.42863174935444
  H   6.75015353062772      0.30884490684711     -0.14643409183624
  H   5.79884796365273     -1.83370622626628     -0.94172430439148
  H   3.84294698908060     -3.05811431962794     -1.24893378484936
