22
Coordinates from ORCA-job 12936optt
  Br  1.34272695344478     -0.27297080580523      0.16997498915744
  C   3.20047173270023      0.01951712759080     -0.00899755435488
  C   3.93214979167028     -1.13907278079929     -0.05873136615546
  N   3.54381575130977     -2.44212093124149     -0.10748787287608
  C   4.65865633824843     -3.26100272650437     -0.17629253598959
  C   5.75058049117359     -2.48085282758604     -0.15648054179248
  N   5.30306988674089     -1.15992605172173     -0.07890497476504
  C   5.98921503006730      0.00807815131101      0.08750877713565
  C   5.32631164391411      1.17850128385392      0.15687777533461
  C   6.10492045423372      2.40726292327025      0.43839150338523
  N   7.19320247026400      2.50011226117235      1.06545355664553
  O   5.59056398106730      3.55170100824946     -0.06251466880384
  C   4.25773995594343      3.71028350096816     -0.39903445673539
  O   3.92592588737540      4.79606930576501     -0.76524346583614
  C   3.38842326270161      2.54481567658051     -0.28464347403453
  Br  1.60332566241379      2.95523313822473     -0.72283405252688
  C   3.87871461710251      1.28656411389051     -0.05527480208195
  H   2.57765057469509     -2.72352856375977     -0.11343463724109
  H   4.57583101042558     -4.33061789382399     -0.23719921876792
  H   6.79703669541477     -2.72295711953129     -0.18897934603011
  H   7.06433529030328     -0.07099203513491      0.15716731117327
  H   7.49133251879010      1.60290324503140      1.43367905515967
