26
Coordinates from ORCA-job 12946optt
  Br  1.13930040148700      0.13429674736351     -0.73504111253742
  C   2.94884926954075      0.08121934530632     -0.26010874321019
  C   3.65536864469388      1.21538121622961      0.04229156981984
  N   3.21276017065815      2.50722200154275      0.13344531047136
  C   4.36607811567343      3.40740170137896      0.07225604644499
  C   5.49452397486158      2.51949539492735      0.60556792895092
  N   4.98757562193010      1.18045404282671      0.31308566856035
  C   5.79575619637942      0.04149385370994      0.38489205519452
  N   7.03799291338720      0.22107406365293      0.67193212363484
  C   7.90439678316727     -0.93922740584913      0.62213281865318
  C   8.02255951149281     -1.49352817114440     -0.74042259129684
  N   8.08526381182324     -1.90283724608080     -1.80936212161580
  C   5.03206819820365     -1.12553551428553      0.10031723545748
  C   3.70975285624717     -1.09845980098447     -0.21686424457004
  O   3.25012351790775     -2.35448275413508     -0.40921331645631
  C   4.44686840739367     -3.14666518400271     -0.49358648861059
  O   5.43463514231556     -2.44658507875538      0.22659250865756
  H   2.36538643533278      2.73692441515082     -0.36310671083135
  H   4.20719742170670      4.28867305388852      0.68879663385141
  H   4.57024284476299      3.71952626928242     -0.95557437087614
  H   5.64132278115029      2.62540312629490      1.68173885499284
  H   6.45024162347718      2.66965971107876      0.11086161788818
  H   7.58437641321456     -1.75559859679552      1.27621127376974
  H   8.90220157050530     -0.63708582030276      0.93841444502258
  H   4.73478789009370     -3.21973444099225     -1.54813962083586
  H   4.27136948259378     -4.11548492930547     -0.03711677052926
