29
Coordinates from ORCA-job 12943optt
  Br  0.83341968100227     -0.55366467441479      0.25513379228149
  C   2.70619221372971     -0.38059340327995      0.08489944876850
  C   3.20658896031300      0.79326614888226     -0.36993986504863
  N   2.56580148472092      1.93448304580516     -0.80069431934959
  C   3.52898459964451      3.03366799795635     -0.81032127857485
  C   4.85163500301081      2.29735087544692     -1.03728464750807
  N   4.56003601741644      0.97661354833052     -0.49657803402537
  C   5.51007086705922     -0.01644454669933     -0.31732216822968
  N   6.77083271052510      0.10803662734389     -0.52227102342541
  C   4.95498513892250     -1.26764998769401      0.18459211657657
  C   3.62368439909783     -1.43228866884293      0.40496116128925
  C   3.21152188728604     -2.72381889406449      1.05704058099762
  N   3.41838822158237     -3.90185146788247      0.22771307536688
  C   4.55972396832979     -4.34587342847117     -0.35810064639682
  O   4.60234358226219     -5.43038858235206     -0.90444492163967
  C   5.79643544804498     -3.46163991874596     -0.41328015783166
  N   5.85418969527811     -2.30186553797777      0.47316924396786
  H   1.64086403776845      2.09761028411069     -0.43232309662349
  H   3.54623974284289      3.56411217789749      0.14644230069035
  H   3.31056793122290      3.74246431667510     -1.60575256059631
  H   5.68138098792194      2.75973474880305     -0.50418829095788
  H   5.10688002545486      2.21960806895446     -2.09748547868732
  H   7.03732477499056      1.02607639582645     -0.86151633571813
  H   2.15504337320202     -2.70008912754490      1.30940306240493
  H   3.78299649707739     -2.80995999428755      1.98536803001597
  H   2.67031067457497     -4.57705161818275      0.18275888427086
  H   5.89747816256866     -3.17851567911265     -1.46926126046784
  H   6.63038796872475     -4.11977589350855     -0.17562744621701
  H   6.79369194542478     -1.91855281297104      0.45490983466744
