21
Coordinates from ORCA-job 12958optt
  Br  0.90493715024720      0.23762941178288     -0.03575914072901
  C   2.77279395321716      0.10566671606303     -0.01840387199955
  C   3.50604057637271      1.24901763669768     -0.01258477994606
  N   3.18449686061104      2.57079165742173     -0.01417712146735
  C   4.35741623388377      3.32119632832325     -0.00608482899629
  C   5.40916098281096      2.47472345550247      0.00063654280944
  N   4.88711798988857      1.19629979257950     -0.00322849776466
  N   5.60205579845555      0.08192096258964      0.00010241199837
  C   4.93170712046034     -1.02937910082041     -0.00377129864510
  C   5.74651456111746     -2.29168894106973      0.00031617127254
  O   6.95845780001413     -2.28150264458595      0.00348148310416
  C   4.93775117286823     -3.51198670806038      0.00031129524238
  N   3.64785671691131     -3.53301652860745     -0.00553867285986
  C   2.90840620887769     -2.38368425778559     -0.01203071353869
  C   3.46898606414412     -1.13709622221306     -0.01163808274391
  C   4.34840915789484      4.73829274537148     -0.00518690804039
  N   4.31873350830318      5.88476185972198     -0.00451100302819
  H   2.24296919331278      2.92804889538001     -0.01937053985935
  H   6.46972344664509      2.64992081306953      0.00767170510583
  H   5.48190631833007     -4.45137142665614      0.00503000606013
  H   1.83455918563377     -2.50554444470447     -0.01726415597443
