23
Coordinates from ORCA-job 12959optt
  Br  1.09366318625224      0.02004782169664      0.12929092512107
  C   2.96293242992032      0.03554061288329      0.07568462543581
  C   3.64849783215935     -1.15080578376518      0.06725987027432
  N   3.23765187532540     -2.44333116382501      0.08262733354027
  C   4.33413006970857     -3.28438412650273      0.07217012771943
  C   5.44710285859180     -2.52186127447583      0.04601403155747
  N   5.01318795994788     -1.19146900411629      0.04209659681525
  N   5.79152412836771     -0.10183558507802      0.02108682605206
  C   5.17452240351290      1.03050376086662      0.02175256922531
  C   3.70780439740542      1.25746427164458      0.04740498296221
  O   3.25140577977789      2.38893076593624      0.04581145658679
  C   6.84015987579555     -2.91547190594551      0.03332198263220
  N   7.22424480681134     -4.14645773832108     -0.02137000111536
  N   8.58904295630843     -4.06934800977146      0.02037437392924
  C   9.07474251533133     -2.77838899193245      0.08158563078512
  N   10.24284665969368     -2.27953057721298      0.12005166005825
  N   7.89468579320900     -2.04706805251695      0.10085858258429
  H   2.26683758443968     -2.70878192029458      0.10484610613301
  H   4.24902178059492     -4.35551071625005      0.08638842223574
  H   5.79972937487286      1.91517690453891      0.00586846188618
  H   9.13515546695842     -4.90720193911785     -0.05599410633596
  H   10.96364891732011     -2.99177240901580      0.09957433960549
  H   7.83346134769515     -1.04144493942450      0.11929520231181
