23
Coordinates from ORCA-job 12954optt
  Br  1.07775404612189     -0.01068241257857      0.56419316961565
  C   2.89072647798938      0.09141866619748      0.08289174403963
  C   3.61967281486744     -1.07895212359566      0.07510396100264
  N   3.24936972052898     -2.36913819130412      0.26785644192871
  C   4.36453118652197     -3.18562220549797      0.16808254662999
  C   5.42794363440687     -2.40205598691501     -0.08584838087409
  N   4.96238283217144     -1.09376264963200     -0.14105958338594
  C   5.75916707173006      0.06656901140881     -0.36351951441361
  O   6.95448273249557     -0.07605290773684     -0.53380893501576
  C   4.98166322563168      1.26128306032173     -0.37612295605960
  C   3.61951948050072      1.26668174215966     -0.17064197838705
  N   2.94367403297399      2.50305703990722     -0.22711029290522
  N   1.79772016664439      2.64513467658509     -0.97601233992050
  C   1.50878946860045      3.89328245899297     -0.89997742810864
  N   2.41080531673990      4.58536754468822     -0.14127216313668
  C   3.38971073054250      3.70597897064215      0.30182788549856
  O   4.35969732919717      3.94544632303956      0.97535612923870
  H   2.30153925661987     -2.64911432384650      0.45647915093455
  H   4.29697370287842     -4.25158518027285      0.28567389955352
  H   6.47063166469462     -2.61319225526470     -0.23530165151568
  H   5.50584189966490      2.18696131987767     -0.55443031556276
  H   0.65897175427717      4.34375956736365     -1.38450421825438
  H   2.42543145420060      5.56821785546002      0.06714482909798
