23
Coordinates from ORCA-job 12952optt
  Br  0.91599861217413      0.11086260507497      0.19266080030595
  C   2.78683820516511     -0.01187859637016      0.09269976021131
  C   3.43161754743813     -1.21367163837638      0.09082482366363
  N   2.92002381470500     -2.47857914604899      0.19598915760621
  C   3.94214085667730     -3.44079496470653     -0.22504462144954
  C   5.23656890649997     -2.68400675373310      0.08523826204278
  N   4.79372339168397     -1.29458828422525      0.00286079315879
  C   5.69104260514267     -0.21956732354045     -0.02611049783481
  O   6.89004049302908     -0.42107692882577     -0.04395160386986
  C   5.01133539727829      1.04491516185172     -0.03948494789109
  C   3.61163374901802      1.13267920003969      0.01601979869245
  N   3.23084832511011      2.43868113371365     -0.01323502147617
  C   4.37715900483521      3.20649277113384     -0.08107936373534
  C   5.49041495751032      2.38165397640176     -0.09846661827600
  S   6.81830964392429      3.41853752145994     -0.18164483880098
  N   5.84183183984466      4.80050239885136     -0.18697003670211
  N   4.59316485878148      4.53123096017447     -0.13047423991938
  H   1.95844080902356     -2.61341648418582     -0.07716805725077
  H   3.86503085809921     -3.65750423929025     -1.29394465503049
  H   3.85995901743758     -4.36851339700467      0.33567664477557
  H   6.03615650284718     -2.86470790846537     -0.62803515178026
  H   5.60713362531781     -2.89192419971859      1.09042232344967
  H   2.28158697845689      2.77267413578994      0.02021729011044
