28
Coordinates from ORCA-job 12963optt
  Br  9.78765685847408     -7.82207330564928     -1.69863363606623
  C   9.65542536412525     -6.05755142295374     -1.02602218221489
  C   10.81092505583188     -5.46907462308774     -0.60875492633677
  N   12.08349466701985     -5.95516682426729     -0.64055694309957
  C   12.94094320442254     -5.15201270179333      0.22587560013402
  C   12.23321010528425     -3.79791356505998      0.18407996839407
  N   10.83635908484653     -4.21866416102031     -0.01642499824421
  S   9.70402888818350     -3.07795865691620     -0.47284682757709
  O   10.04999663741746     -2.60126582233013     -1.77867328193121
  O   9.62632295123770     -2.11057814953230      0.58291845424183
  C   8.30354227471930     -4.08794551989303     -0.50651929302802
  C   8.39737808198597     -5.39912472144494     -0.85127478389159
  C   7.09339615444863     -6.16943602424667     -0.88458599390894
  N   6.60991558732347     -6.42366889868610      0.47114140695379
  C   6.33707423500809     -5.45201881740106      1.24165381917099
  N   6.38039506301239     -4.10015376530290      1.02817272481705
  C   6.99322520186608     -3.45338247414834     -0.12968360412859
  H   12.20479540503598     -6.95423511966078     -0.70961686565876
  H   13.95603560130617     -5.10233464416651     -0.16113085128904
  H   12.95925213010627     -5.54615462166550      1.24541912915117
  H   12.56499130934516     -3.19761007304307     -0.66598196458956
  H   12.32800122496086     -3.22798721353058      1.10393286966310
  H   6.35731386374760     -5.61663479501296     -1.47527958554669
  H   7.23503386940214     -7.12979049701929     -1.37021847607055
  H   5.99619930548754     -5.69859741707942      2.24626150966684
  H   6.29500560974666     -3.53430212920229      1.85502309714499
  H   7.15107790299374     -2.40867639876547      0.13093918107850
  H   6.30400436266078     -3.47068763712074     -0.97621354683464
