23
Coordinates from ORCA-job 12977optt
  Br  1.58702034847121     -0.44991453571790      1.60687886548595
  C   3.17063188513032     -0.13585749597014      0.67507398728926
  C   3.58247819937582      1.12520637619972      0.35548879085843
  N   2.98435149082170      2.34785448068227      0.62032474293777
  C   3.78023581334178      3.22941897751478      0.09604763361196
  C   3.53516843092743      4.70379286539694      0.18266318889024
  N   3.73223515497596      5.35946446859141     -1.09541239271343
  C   2.85830440352616      5.88795164421407     -1.95995177551331
  N   3.51759788153499      6.31487634327604     -3.00755187781813
  N   4.80864138713565      6.02982805425836     -2.77047610329239
  N   4.95097316371708      5.45885002138723     -1.63392060915659
  N   4.88466266388510      2.72160465853626     -0.51227200695706
  C   4.79658693020880      1.34244472505527     -0.37460652027795
  C   5.56934135827279      0.30422453510920     -0.76200042524988
  N   5.13693232844408     -0.93743522611560     -0.42043512336172
  C   3.97425585685975     -1.28006438330463      0.29046898345900
  O   3.73931508745745     -2.45064316162840      0.51784409720399
  H   4.21475095825024      5.15758289851124      0.90515156952339
  H   2.51043338048515      4.86226954624139      0.50767662398628
  H   1.79574682873092      5.94254663071985     -1.79438779213956
  H   5.57135458814099      3.26424786228676     -1.01435498125271
  H   6.49350392126520      0.37826129539691     -1.31539591110964
  H   5.68347793904138     -1.74551058064103     -0.68385296440387
