23
Coordinates from ORCA-job 12973optt
  Br  1.05578332426013      0.06838657407497      0.44849142327163
  C   2.89340859184378      0.15773658625170      0.17480967933186
  C   3.61952779143064      1.29179513199124      0.25180973799194
  N   3.26321420861829      2.59139128456432      0.54528741074186
  C   4.38618728528067      3.25174610764271      0.48074830694789
  C   5.53416730678849      2.43857220655867      0.12188661082488
  N   6.84581898741987      2.89170394471816     -0.00733737131186
  C   7.24629254137372      4.10763235509089     -0.56592608196103
  C   8.56414782180593      4.18808378091216     -0.41559153366382
  O   9.02631217924010      3.06146013231220      0.22750892289916
  C   7.95874868360253      2.25094436209955      0.50955350691369
  N   7.97148122346376      1.15025102318008      1.12259313825742
  C   5.02511101096038      1.18732598228072     -0.01873283386615
  O   5.61566451406905      0.02401534650601     -0.37700016345916
  C   4.89793146585138     -1.12801290017099     -0.37378601423223
  N   5.38760226343467     -2.26182408969276     -0.59384703140106
  N   3.52727725407050     -1.00496693050050     -0.12737227235481
  H   4.42907636766808      4.31419704416550      0.68851042979403
  H   6.54745448784455      4.78016830944381     -1.02973605909925
  H   9.28973728288913      4.92628792513752     -0.70026695621311
  H   8.91137431873297      0.90918425803214      1.41776959465544
  H   6.38953132589487     -2.20214830955781     -0.74764983998465
  H   3.02014976345647     -1.87693012504032     -0.15072260408268
