23
Coordinates from ORCA-job 12970optt
  Br  1.04717482845126     -0.24534295240814     -0.71828062162785
  C   2.82119411979076     -0.17464133489683     -0.14548360278817
  C   3.69996254780061     -1.16030251904815     -0.39403347455727
  N   3.47162641378629     -2.35132383794068     -1.07351139836058
  C   4.61504687596651     -2.97035725329385     -1.05304088891854
  C   5.67788507294327     -2.23548347232754     -0.38168684736662
  N   7.01259748062499     -2.60852500985995     -0.17211015216227
  C   7.44542813744799     -3.18291805865561      1.11541368926023
  C   8.78319619581621     -3.82658187928372      0.70954547521322
  N   8.70896845629563     -4.00459362568961     -0.74867969291346
  C   7.73361445764321     -3.30181257908856     -1.14201622173731
  C   5.08491769285935     -1.08567544351728      0.03309643676292
  N   5.62597656521369     -0.01901615718269      0.70599653202367
  C   4.98025656769183      1.11902074992126      1.09162149173536
  O   5.51036501161125      2.03091045480626      1.66437595823336
  S   3.22640230129531      1.27102766088961      0.72295078367900
  H   4.73482112472340     -3.94716332886250     -1.50823227272848
  H   6.71521719868459     -3.92572559485860      1.45170731351370
  H   7.54769898845718     -2.41846813758125      1.88422273653433
  H   8.96244463115080     -4.77879199506989      1.20481690215333
  H   9.62593633013747     -3.16752012887227      0.93304023754126
  H   7.44645622117199     -3.18471981285661     -2.18173396099388
  H   6.62081278043631     -0.02599574432334      0.90102157750406
