20
Coordinates from ORCA-job 12984optt
  Br  1.00602102576565     -0.40016862159117     -0.34819505733934
  C   2.87165740690822     -0.17401604685781     -0.25775966658996
  C   3.63536787242912     -0.96445344770061      0.53427097685699
  N   3.09015871005340     -1.96243045225960      1.31168538745225
  C   3.83293594776936     -2.75840627277461      2.12189797805489
  C   5.17398240560114     -2.59597434743328      2.18751095807261
  N   5.79740541124494     -1.64094352989976      1.43765858907640
  C   5.09725262594788     -0.88014247651046      0.66744098993293
  C   5.73812311449349      0.12787295512131     -0.14745842124367
  C   5.14537090921829      1.00793680592135     -0.99108342907042
  C   6.23544833326989      1.73093634669142     -1.54457919448748
  N   7.36044305114362      1.30363256833118     -1.05760987731286
  O   7.05756207084366      0.29544458508748     -0.17587096254294
  S   3.43403980984124      1.13754995687518     -1.27536447188660
  O   3.16814155649541      0.83130127857187     -2.64949503768792
  O   2.95820290927174      2.38520789520889     -0.75580891317412
  H   2.08737616737023     -2.08422542197871      1.26696068771060
  H   3.29362584374467     -3.50375088376467      2.68742588699584
  H   5.79065843501307     -3.21178163724069      2.82279646125762
  H   6.22422639357497      2.53041074620271     -2.26742288407482
