23
Coordinates from ORCA-job 12988optt
  Br  1.06477022533072     -0.76081771720674      0.57124466528100
  C   2.90219439302486     -0.38708436992233      0.41232192066300
  C   3.76891999759847     -1.41909507223574      0.12321848922156
  N   3.44289436108193     -2.79103790690738     -0.10136496275994
  C   4.53520837397487     -3.39901796928286     -0.34739948234675
  C   5.73586601916801     -2.49461736215280     -0.31672406229528
  N   6.95773458245453     -2.74074470853613     -0.51487877353067
  C   5.13646719764271     -1.18207905100942      0.00748361672234
  C   5.66947644417303      0.06963901545108      0.17095144961127
  C   4.80334159991760      1.12573091553228      0.47947754104755
  C   3.42610325587265      0.90675546543155      0.60208230433593
  S   2.33922688932520      2.21458342421426      1.08523142733016
  C   2.67087448428335      3.42250820087717     -0.14450011015764
  C   3.85740129366577      3.86135520711806     -0.54884635544961
  C   5.16533839868504      3.58349113978127      0.08412834489428
  O   6.02972438468573      4.43083172116063      0.07638880539830
  N   5.38483960456782      2.38405976581072      0.73195540615871
  H   4.57458028678777     -4.46198309787460     -0.55934584016774
  H   7.10856462812455     -3.72930486866461     -0.72392552932473
  H   6.73348572337614      0.24322663195050      0.06656262960918
  H   1.76958783591198      3.84457722202487     -0.57436287272185
  H   3.91108002301663      4.62894996315316     -1.30997684386423
  H   6.33731999733059      2.34507345128706      1.07227823234515
