22
Coordinates from ORCA-job 12986optt
  Br  1.07672259752178     -0.38725702181168      0.30880741777097
  C   2.94673264167375     -0.22315646014191      0.16249096422661
  C   3.70786121438723     -1.39211411150810     -0.04453859303850
  N   3.08062952978148     -2.62161595393051     -0.27518442105826
  C   3.78434231831563     -3.65915569304701     -0.22814592677224
  C   5.25274481908150     -3.69893165130591      0.12737118671506
  N   5.82164730906525     -2.45271454407604     -0.35396295988664
  C   5.10226925889175     -1.31402002242511     -0.13486252101794
  C   5.66241124812352     -0.03821409225609     -0.05468677535315
  N   6.97328014831317      0.38847711892023     -0.10859775849624
  N   7.02042502920316      1.61941515137258      0.03002489411950
  O   5.71113003361982      2.13056230897732      0.19648761918696
  C   4.88165723409268      1.08471114551199      0.14125341615298
  C   3.49933771680440      1.04057985107331      0.26810066971000
  O   3.17350960897196     -4.83948574148995     -0.60868193415910
  C   3.38087038113538     -5.94782182261157      0.12772448260542
  O   4.00598123240592     -5.99714639212458      1.13998136572880
  H   5.74107138008906     -4.53894592334815     -0.36259494090124
  H   5.35842180358394     -3.82975247604275      1.20992120690165
  H   6.82547265846424     -2.36295313577809     -0.32573252511283
  H   2.89661227407423      1.91850562528835      0.43631155940901
  H   2.87486956240008     -6.79196615924632     -0.35148642673083
