22
Coordinates from ORCA-job 12983optt
  Br  1.24029734815080     -0.05721451713754      0.24749536409440
  C   3.08390532189350      0.13978913892303      0.16957836607505
  C   3.73150927255164      1.33083829097491      0.12574843950111
  N   3.25594011617446      2.60482707880429      0.11787244458228
  C   4.34555629802855      3.35139314362824      0.07016889521778
  C   4.24667751746051      4.84780774614584      0.03231663325616
  N   4.90668516767713      5.47081651566548      1.16219621946885
  N   4.23855892394528      5.83293385402957      2.27851302111927
  N   5.05825476332041      6.31276907708877      3.09939340777167
  N   6.28599555777206      6.26171581999743      2.54070665120142
  C   6.25394759652374      5.71742089332549      1.28062211155694
  O   7.14549664882824      5.50805474138183      0.48796297452737
  C   5.57077854836027      2.60760935787557      0.05005224702015
  C   5.17093500710775      1.29704411174921      0.08449512832320
  C   5.77358214976927      0.01051193617171      0.07761539212018
  N   5.11628145475736     -1.09748856411457      0.11310552809492
  O   3.73086390256890     -1.01284474762115      0.16547036346310
  H   3.20264054103271      5.15028312676436      0.04915956888944
  H   4.72911966248848      5.23486079179056     -0.86702571672745
  H   7.09127629901164      6.60573789148477      3.03493189196957
  H   6.56497529101663      3.02499884306304      0.00303920329005
  H   6.84672261156059     -0.13586452999090      0.03858186518453
