21
Coordinates from ORCA-job 12981optt
  Br  2.11500013331796      0.42322904774384      2.18173931291010
  C   3.30658079749165      0.08525385039013      0.78811002031036
  C   3.63884883161817     -1.17254654052878      0.39377376057567
  N   3.31946342040354     -2.44457361741607      0.76841384653574
  C   4.04710341667004     -3.17171292352018     -0.05113350495964
  C   4.07031325666963     -4.66951971707770      0.01901010472201
  N   4.63611376296092     -5.25075545949543     -1.17225956213353
  N   3.87304821475171     -5.31604116323194     -2.29081218154219
  C   4.57963700139709     -5.64381822024434     -3.30338540486548
  S   6.27061939948818     -5.88015161755218     -3.00697469342810
  C   5.99000657010640     -5.45150507585775     -1.29499112067364
  O   6.81078884175696     -5.36929465861754     -0.42253874183362
  N   4.84166670291320     -2.51448755143748     -0.97911411115135
  C   4.58084721664260     -1.28200708503914     -0.68990412359354
  O   5.09026480156291     -0.19759863263488     -1.27989474963814
  C   4.68306368710273      0.98492155482222     -0.79484820268696
  N   3.85719079403681      1.16496629924846      0.16389325548847
  H   3.06131111339093     -5.05048948640128      0.16393949561279
  H   4.69085337178623     -4.97782738394993      0.86188958770760
  H   4.13837781651842     -5.76323417378959     -4.28100765397136
  H   5.14590084941383      1.81219255458964     -1.31390533338520
