21
Coordinates from ORCA-job 12992optt
  Br  0.93322618667867     -0.01970647776718      0.00626093700903
  C   2.79329520381659     -0.04386424063636     -0.00214343199641
  C   3.55099586970450      1.06992480743001     -0.00598913766937
  N   3.07858972448664      2.39921935972714     -0.00594859790944
  C   4.08842052482362      3.18197022310289     -0.00943489896625
  C   5.40867014801959      2.47824066331705     -0.01205131546244
  N   6.58899364082886      2.92491672744589     -0.01540456608435
  C   5.01402335786079      1.05501258194499     -0.00986809404536
  C   5.73963096965244     -0.07850740743337     -0.01008729857040
  C   7.16893483650105     -0.12571053376545     -0.01169628397048
  N   8.30770168312086     -0.26333532252536     -0.01183718424477
  C   4.99516852142205     -1.32078266836480     -0.00832592665327
  C   5.35823118174796     -2.60900250475105     -0.01008426945449
  C   4.08403481305195     -3.38540894269908     -0.00746242368632
  N   3.91279763677572     -4.63677285783463     -0.00850196300665
  N   2.97937915335625     -2.48791141714753     -0.00378986581056
  C   3.49846810692246     -1.31502772588595     -0.00440697136609
  H   3.97806739763167      4.26118316392066     -0.01046095011239
  H   6.60699150145644      3.94590846972138     -0.01625415494401
  H   6.35222437643145     -3.03060827819070     -0.01315636634002
  H   4.81215516571040     -5.11973761960854     -0.01135723671596
