26
Coordinates from ORCA-job 12998optt
  Br  1.15081371162232     -0.31501994758183     -0.18082831432211
  C   3.02986559382563     -0.14505432338778     -0.01928855441146
  C   3.79431805650930     -1.26808774581797     -0.18250709824544
  N   3.22357058166300     -2.47894752046056     -0.44496308779237
  C   3.94171833478663     -3.71722182006427     -0.64389063841884
  C   5.26806076671673     -3.63321986865953      0.09728036688728
  N   5.92763941161525     -2.42748594547841     -0.36385141866240
  C   5.25536328674954     -1.22976804901381     -0.07422463507067
  C   5.91905808438870     -0.10416001434331      0.22109520819360
  S   5.22576534600203      1.45187128965737      0.46214565529661
  C   3.48180345504982      1.19922618935031      0.28027373650443
  N   2.67760686375152      2.17593242830278      0.41787959421082
  C   3.10253863955488     -4.84163780526943     -0.14505361860363
  C   1.98704063753042     -4.94222357174989      0.60747935579066
  N   1.66795269959459     -6.28538426466721      0.75860691602949
  C   2.58374645256810     -6.90550038730740      0.11156478598514
  O   3.49813988685232     -6.10204131329460     -0.47060212313591
  H   2.23745835876471     -2.47392990847892     -0.65958609037094
  H   4.16212543203033     -3.88317735511929     -1.70554600741036
  H   5.87872798866800     -4.49907663595753     -0.15153229051807
  H   5.07336916486525     -3.63038958673927      1.17761417007360
  H   6.90915818683031     -2.38466179682120     -0.13249999238546
  H   6.99940691336803     -0.11042129532221      0.29680849428464
  H   3.15321290935921      3.04905040295651      0.63181382794377
  H   1.39885389410912     -4.15695080267917      1.05120843619726
  H   2.71068534322418     -7.96672035205330     -0.02339667804963
