21
Coordinates from ORCA-job 12999optt
  Br  1.38581270193736      1.53737833829590      0.24837208982957
  C   3.18111797719708      1.12031162123019     -0.07448999636329
  C   3.67810745086754     -0.15632594076838      0.05776131795863
  N   2.99286774280961     -1.34886364013338      0.41898050722371
  C   3.85613045951910     -2.28914221763719      0.40180670519078
  C   5.23651119564921     -1.83207057131229      0.02553609691670
  N   6.31226160462979     -2.47888222395313     -0.07955498163630
  C   5.03430644562844     -0.37326335744771     -0.19579675077440
  N   5.90587472282762      0.53489183379887     -0.56084135338697
  C   5.43886594241274      1.78130492075343     -0.67082637727448
  C   4.09327576715283      2.10585639939044     -0.45845960898989
  O   3.63079545468682      3.37074800037135     -0.71851375973201
  C   3.81353886158530      4.33410747523791      0.24131330365136
  N   2.90869921783565      5.06364069907297      0.68724124448723
  S   5.47970169972908      4.58607383515509      0.80127965472552
  C   6.44204415194718      3.88015485216891     -0.52588957703962
  N   6.37465846515912      2.74056997746922     -1.05689503638144
  H   3.59846079483388     -3.31527521239583      0.64069962812605
  H   6.17016542532439     -3.46915039268441      0.13143660814154
  H   1.99764880136055      4.78348307258416      0.32422219195037
  H   7.23515511690665      4.55045253080385     -0.84838190662306
