25
Coordinates from ORCA-job 13005optt
  Br  0.91152033090491      0.07562275000713     -0.31701478728907
  C   2.78817780503428      0.07425854381937     -0.20471838951230
  C   3.56106113514862      1.17743529179104     -0.01383743846959
  N   4.95213233797083      1.01626440055028      0.01067475499232
  C   5.79203352636249      2.13449090745474     -0.04440835321177
  C   5.30037896056454      3.36257946909547      0.07768206610280
  N   3.95174544710667      3.55279862833852      0.28277034053253
  C   3.01101427278062      2.55068221490671      0.22542673631657
  O   1.84213318706270      2.79279927121408      0.38129460210891
  C   5.54354842866508     -0.25754794307872      0.04280154921720
  N   6.77497189907220     -0.53391194648878      0.21776104541040
  C   4.59282193501198     -1.34442721864643     -0.20778702470283
  C   5.14184862109145     -2.74284021959254     -0.27897496164240
  O   5.49137450039687     -3.17928576203917      1.02528282491516
  C   6.80716668463492     -3.32588710188654      1.32368152217301
  N   7.22927258718000     -3.67096894504352      2.45100650400929
  N   3.32883841794450     -1.17101028163306     -0.34141370199761
  H   6.83158963292028      1.95346691515835     -0.24989128590503
  H   5.92192050290631      4.24070033327384      0.00694118089472
  H   3.57576667637838      4.47566399400376      0.44008257957418
  H   7.36715870423311      0.25600393324568      0.44439258436939
  H   6.01200285392834     -2.77297412198380     -0.93837976748532
  H   4.35867255821393     -3.39881217417035     -0.65273137135452
  H   7.48346124336180     -3.12557826025973      0.49629516631269
  H   6.45738775112510     -3.79852267803632      3.10606362464126
