21
Coordinates from ORCA-job 13009optt
  Br  1.11488485241363     -1.40312842347507      0.02272258850424
  C   2.83447337162354     -0.67745898049478     -0.04951012225417
  C   3.09522447830112      0.65131796642154      0.13193562777198
  N   2.05486333230645      1.44868442065490      0.64043710797540
  C   2.00179884910052      2.70172706514629      0.49314704516495
  C   2.89871312909659      3.58390505393955     -0.30381377340352
  N   4.13782238547278      3.45697592663839     -0.49847663764203
  C   4.91283635663430      2.37304192967910     -0.07221069269630
  C   4.46856092695683      1.08029051530789      0.03550923159827
  C   5.42813246023577     -0.02132962469082      0.05242820608364
  N   6.75789833212273      0.26405746847933      0.22168155675975
  C   7.31146195686026      1.52703132496707      0.30087364581144
  O   8.48452082676013      1.68513377117499      0.48663633831446
  C   6.33669035929481      2.69275924171647      0.08111312775410
  O   6.78120559933809      3.80869164061745      0.04762846401939
  N   5.12301822882218     -1.26328308433144     -0.12358608562392
  N   3.82822757348014     -1.56411136931123     -0.26191922048247
  H   1.16488623857154      3.20802061677857      0.97488915333877
  H   2.41671567830233      4.46521997418737     -0.72722147333041
  H   7.40158336628208     -0.51606308245254      0.26780737127156
  H   3.62548169802417     -2.53748235095303     -0.42207145893513
