20
Coordinates from ORCA-job 13007optt
  Br  1.11222901763279     -0.43436777787326     -0.03037039597586
  C   2.95121514048630     -0.26272509187244     -0.03457613131820
  C   3.80984253885606     -1.29620978108214     -0.03433306300236
  N   3.59569369573265     -2.68557332156121     -0.03175265682454
  C   4.78510585160996     -3.20177716031034     -0.03209636667515
  C   5.00493551853226     -4.61951361685803     -0.03041396385322
  N   5.25529469691464     -5.73827442040403     -0.02963575071673
  C   5.87673794166954     -2.20197072293829     -0.03523286030520
  C   5.22047461947018     -1.02713919336132     -0.03662480782626
  C   5.82790236503671      0.26506513611152     -0.03906367142132
  C   5.01442684351304      1.32958601059654     -0.04018067744054
  C   3.52732651216346      1.14857005289701     -0.03862207468055
  O   2.79387672765284      2.10085064737108     -0.04081124533607
  C   7.33388171865064      0.27398653059586     -0.03990713457967
  O   7.96324550632188      1.30460131889528     -0.04118819727184
  C   7.99751224806434     -1.06073107556512     -0.03847216190673
  C   7.32525095131193     -2.22724785622204     -0.03626140080864
  H   5.37226458986275      2.35126798963542     -0.04223163669390
  H   9.07905765738355     -1.03221190601521     -0.03913097574964
  H   7.85372585913445     -3.17318576203928     -0.03509482761357
