21
Coordinates from ORCA-job 13003optt
  Br  1.14614549085108      0.20967374787119      0.06785754691517
  C   2.99169062793897     -0.00055266433416      0.07028248245482
  C   3.61083045412253     -1.22132608118647      0.07021872734736
  N   2.90330349803445     -2.38980710464900      0.06908973996265
  C   3.59873398477153     -3.45863988924130      0.06851807602833
  C   5.06094860093535     -3.45879710901047      0.06858009471340
  N   5.74943742801421     -2.37924681810322      0.06978079522632
  C   5.05359709068159     -1.17222351937589      0.07106906766293
  N   5.74126706679565     -0.07854417527610      0.07272996608694
  C   5.09518787009550      1.12798998150479      0.07405274293348
  N   5.57528797770677      2.28386938538269      0.07718446969931
  O   3.66229720572652      1.11412128054710      0.07170888852622
  N   2.94374813170230     -4.70719172968346      0.06774623224661
  N   3.62803354733600     -5.84613059134187      0.06673151388259
  C   2.69403617432033     -6.77521849308427      0.06639554859961
  C   1.43839111293419     -6.13922738024776      0.06707724304461
  N   1.62789505982034     -4.83436900558562      0.06816474807223
  H   5.58129322409197     -4.40961160486580      0.06752458950864
  H   6.58933123213265      2.22039170541436      0.07862883749900
  H   2.94842464131344     -7.82108413176594      0.06558150393673
  H   0.44611958067461     -6.55607580296878      0.06707718565307
