27
Coordinates from ORCA-job 13000optt
  Br  1.11132774208966     -0.72679747100823      0.00754619086478
  C   2.94898225019583     -0.28043440969111      0.06400568702572
  C   3.51348431339641      0.97310801711710     -0.00746898402167
  N   4.89112582706022      1.03718490587286      0.04668391584365
  C   5.56246598468244      2.19139268741282     -0.32136032431657
  C   4.86675689424766      3.30141747092968     -0.60458476626609
  N   3.51355267099901      3.37022942207317     -0.45463471583414
  C   2.85384392351649      2.29061885444567     -0.15696475238389
  N   1.51802058712551      2.38804123032714      0.01629695956060
  C   0.85811529886952      3.67680478557055     -0.00318525957067
  C   -0.65540152788610      3.47832000749968     -0.07952705407514
  C   -1.15298547292485      2.61076249209781      0.98548269443839
  C   -1.50826229818780      1.86643662561669      1.85426281995816
  C   5.67979305470978     -0.09634295162623      0.47600907964836
  N   6.83466149593050      0.00905949471021      0.98375388108157
  N   5.10482379230810     -1.32499826308606      0.25332097229094
  C   3.83047162275411     -1.39543696704962      0.08423073303090
  H   6.63371856461552      2.11188726111633     -0.39871764269564
  H   5.36922723850078      4.19907925177533     -0.93546546091262
  H   1.02029840541612      1.63409907637561      0.46267633408376
  H   1.20159363088315      4.23422916098913     -0.87275717840633
  H   1.12423951968540      4.26031275072907      0.88354895563529
  H   -0.91690489533420      3.03863490730780     -1.04456420374442
  H   -1.14437116739504      4.45184260290449     -0.02022645134929
  H   -1.83757048250513      1.21338736057081      2.62708537975341
  H   7.10318350889937      0.96919962728178      1.16860667695686
  H   3.40280951834750     -2.38403793026247     -0.06105348659590
