19
Coordinates from ORCA-job 13019optt
  Br  1.14277307224927      0.08039927870567      0.00962489951546
  C   3.00115097468563     -0.01329709708605      0.03561627222254
  C   3.69918416151378     -1.21909919834389      0.04394386494376
  N   3.01756705442952     -2.39445870981955      0.04103787679665
  C   3.66754848852155     -3.51640237855366      0.04608852588255
  C   2.94788556187955     -4.76272572864299      0.04630205439769
  N   2.41388655537627     -5.77654966844061      0.04690760078680
  C   5.09786046861602     -3.50098123799253      0.05196109089954
  C   5.81504552401027     -2.33753989535932      0.05584995383993
  C   7.16584925916944     -2.79310140785824      0.06085115806437
  N   7.21625618720947     -4.08813189918532      0.05961480218824
  O   5.90920325411631     -4.54929962587023      0.05418679266560
  C   5.13746373406633     -1.08056672309470      0.05447505587613
  N   5.80341307476703      0.04831755896141      0.06153836236620
  C   5.12644439745097      1.22547171159767      0.06030399300686
  O   5.58309241413458      2.33566283864732      0.07018379961108
  N   3.68015509823969      1.11846999041581      0.04356636785235
  H   8.07674329494450     -2.21609370297294      0.06445184158824
  H   3.19647742461980      2.00892589489215      0.03849568749598
