21
Coordinates from ORCA-job 13028optt
  Br  2.85375967854416     -1.61666740665603     -2.42338036589429
  C   2.93152492058129     -0.74953389079468     -0.76509741028506
  C   2.41938284577526      0.50482663305098     -0.59123790973253
  N   2.03201002883737      1.16732385186598     -1.73901299304841
  C   1.49901915638387      2.30191263065940     -1.90947734355200
  C   0.97902687124019      3.29929769869493     -0.94370861647984
  N   0.61888379461235      4.46028999411962     -1.31386131187965
  C   0.75876775773901      2.93269771483720      0.45328843286422
  C   -0.09236637289572      3.50572275913250      1.35537892971146
  N   -0.00885745072324      2.81857541733094      2.52233859065363
  N   0.84962716722676      1.87743368282413      2.40692225952262
  N   1.33646089872049      1.90931734112666      1.14736426237882
  C   2.35352346343620      0.98093344317758      0.80394472026554
  N   3.06226726359550      0.58196790189384      1.77642655004476
  C   4.01476127329096     -0.40720333442182      1.65754819166860
  N   5.01906963810049     -0.44632015066046      2.41247811903651
  S   3.66852218164082     -1.70515283753460      0.45575297536634
  H   1.37747990319890      2.61723790404512     -2.94755977419645
  H   0.75933436294685      4.58646130521140     -2.31707846578979
  H   -0.74903951333105      4.34558522386760      1.21401269047070
  H   5.65084213107952     -1.21170588177032      2.18995846887483
