26
Coordinates from ORCA-job 13024optt
  Br  0.27559056455442      0.30552005554522      0.32534856917597
  C   1.91319660308305      1.17161717815387      0.72356820207537
  C   2.72943789869664      1.67578360485358     -0.24281685844536
  N   2.37002166795224      1.97825975616738     -1.52965722945121
  C   1.13179593918469      2.70885650007943     -1.87485080487343
  C   1.09664961194276      4.25427459628693     -1.63494938160028
  N   -0.01039034815329      4.74415209936539     -0.79364375382245
  C   -0.05316580290004      4.13415431600904      0.46197146440823
  C   -1.06510392426751      3.65124517051991      1.26614465087598
  N   -0.42001506202288      2.88394857819234      2.22412951412960
  C   0.90106686622275      2.94389123068334      1.97361488320736
  N   1.13772310046662      3.74793986374983      0.96029909968925
  C   2.01665009624379      1.92624630257462      1.99030399593929
  N   3.11435911782484      2.15427127596023      2.58483680377643
  C   4.24965503081433      1.60736070947970      1.99112813662505
  N   5.13704612652739      0.96367261474016      2.59743269159549
  S   4.35523218402270      2.14770640652139      0.24743994257845
  H   3.14065830142055      2.14894277029891     -2.15757822140514
  H   0.30444613625048      2.25651192586108     -1.33622234330196
  H   0.96267569768490      2.50522033889269     -2.93243231763342
  H   1.00548569774951      4.76945033724130     -2.59071290133112
  H   2.03243779648945      4.56852759330187     -1.17639618577526
  H   -0.90206888564121      4.74958271787197     -1.26546419207279
  H   -2.13419028550304      3.75934079563118      1.24724799866179
  H   -0.87093433148919      2.29321261162615      2.90186753659890
  H   5.89374020284602      0.68331065039246      1.97939070037522
