24
Coordinates from ORCA-job 13031optt
  Br  1.13675871910406     -0.28971859662521      0.22022433791606
  C   2.98254936491722     -0.09483848960800      0.05531961933738
  C   3.63007170391573      1.06790989406534      0.16289056474700
  N   3.13319409754162      2.36677552019014      0.35078838805437
  C   4.26674969960080      3.29749005346763      0.24272265623430
  C   4.19056249671724      4.36252464625973      1.24251022454234
  N   4.13808894342953      5.18746338958572      2.03506989204556
  C   5.56202889047603      2.44958421934471      0.37223418663279
  C   6.70891985256836      2.92788744879766     -0.50011810800428
  O   7.83099489909223      2.08523729891019     -0.36417397179794
  C   7.75767017394411      0.86980818775055     -1.03495328401600
  O   7.08078837164995     -0.15652682631775     -0.33715241618241
  C   5.74327262421079     -0.05408495470144     -0.21979245705042
  C   5.06027917403406      1.07163933077355      0.04859114343493
  C   5.01662109963298     -1.33002387511340     -0.34435108712526
  O   5.50214002401382     -2.39262324551758     -0.57075068494635
  O   3.64789129077355     -1.24686092385093     -0.15883020850516
  H   2.52920293278583      2.50124356354727      1.15042930798098
  H   4.24585218381273      3.77123895950763     -0.74485541504613
  H   5.90206053405224      2.44604244697732      1.41282364752199
  H   7.02931907405904      3.92383364832239     -0.19400793540710
  H   6.38990595369897      2.96777755909766     -1.54959632778123
  H   8.77367894437873      0.50378603805048     -1.14343983395808
  H   7.27339895159021      1.00343470708629     -2.01058223862734
