29
Coordinates from ORCA-job 13035optt
  Br  2.22000270501977     -0.74806573157246     -1.20540576793611
  C   2.55160966545691      0.71006248000583     -0.06609970180737
  C   2.16481958437705      1.97138211466371     -0.38645766742877
  N   1.52668026425776      2.19833394546862     -1.62161155382849
  C   0.11493653771248      1.85649074404409     -1.81285303081562
  C   -0.82121812449450      3.06894330634218     -1.77489647093414
  N   -0.95846817739882      3.55877459158080     -0.41386274320120
  C   -0.03270599162433      4.24477056241944      0.05894988088031
  N   1.16781097189806      4.70666277101882     -0.58812921945822
  C   2.15740289324928      4.47788948852266      0.47052448159656
  C   1.36064831759412      4.94976308727262      1.70177505197062
  O   0.02738392903860      4.55118907602892      1.38671284927325
  C   2.54290756016724      2.99881396913362      0.58597551724280
  C   3.27394658675520      2.67050966935720      1.67419260159962
  C   3.67548495929481      1.32056610389167      2.00620617082044
  N   4.36124440654775      1.05552928124623      3.05291706823610
  N   3.20911106246041      0.38524596944903      1.08671014942718
  H   1.70973422422307      3.13018164679808     -1.95563441541309
  H   -0.18435774329063      1.14810163167428     -1.03897714244272
  H   -0.00208175998186      1.35764869476133     -2.77888746527014
  H   -1.80622961809165      2.76165105677789     -2.12540653379792
  H   -0.44756409476189      3.83390783813094     -2.46402740731056
  H   1.08428151374498      5.70479792523692     -0.76861608628133
  H   3.04869469101973      5.07875609359128      0.29686550192457
  H   1.40593969288953      6.03763768938454      1.80210584621110
  H   1.64473474631875      4.47685988294981      2.63728443207671
  H   3.58438095473200      3.42077351091774      2.38956377872954
  H   4.55497530288679      0.06166337665855      3.15183088529704
  H   3.42389493999935     -0.58684077575438      1.24825099063984
