27
Coordinates from ORCA-job 13036optt
  Br  1.25666986882707     -0.44485458641791     -0.60066733876246
  C   1.93322041609722      1.07768557362482      0.26704209185413
  C   2.97459220627797      1.80355883670152     -0.32688045430057
  N   3.17430945376270      1.81741152180341     -1.69764006682187
  C   2.04485322662775      2.44108443314625     -2.42917380373107
  C   1.52644669039009      3.79082145681348     -1.86219284413664
  N   0.35658119282908      3.60016942280674     -1.01965422430182
  C   0.26534930885915      4.06095506994490      0.13623038562382
  N   1.20900967879593      4.81259537274505      0.92386098355098
  C   1.07819075142875      4.08996905697397      2.23375937218704
  C   -0.44251573329759      3.97694432360233      2.29651123353553
  O   -0.80005743903320      3.72670407879285      0.93385735452621
  C   1.87331383971425      2.81818194712443      1.92699741944674
  C   3.17706384375468      3.11138036434025      1.50752162942567
  N   3.71868695087280      2.62589093529331      0.41014784791351
  C   1.35371916118194      1.62775546115261      1.40610959074700
  Br  -0.13923169731917      0.76697430049977      2.17705234616649
  H   4.03621609324107      2.31602592566296     -1.88606708154866
  H   1.21244413432299      1.73918246735108     -2.47082173063207
  H   2.40176080046748      2.58919772962522     -3.44733006113229
  H   1.21402624842235      4.39804282544013     -2.71456723344830
  H   2.33559471404737      4.32146420895691     -1.34773913368908
  H   0.87603860293515      5.77208882609573      1.01382697415189
  H   1.51279980780283      4.67913597212741      3.03897702747228
  H   -0.86758697140738      4.93030308985896      2.62167656380846
  H   -0.83555265827126      3.17701339161455      2.91200325124007
  H   3.73105750866996      3.90131799431926      2.00615990085500
