22
Coordinates from ORCA-job 13042optt
  Br  1.04580936838152     -0.52054066279652     -0.82452086503500
  C   2.80224703930028     -0.16554665105213     -0.26453073329683
  C   3.72649196048499     -1.16352957108851     -0.25583033539107
  N   3.54977013709939     -2.47702223709573     -0.59497363344633
  C   4.70223442139415     -3.05197798962640     -0.35118453530342
  C   5.72392032929618     -2.15918862897013      0.13438919878090
  N   6.98128124235522     -2.56290492532106      0.55871554953376
  C   8.01653873423141     -1.94085872432949      0.18956493888568
  O   9.22285036158233     -2.28715815373663      0.70097712341250
  C   10.24428727327264     -1.48844170327794      0.12373785179203
  C   9.52639733665765     -0.58552752924162     -0.82729566140006
  C   8.22700143787134     -0.85304416495514     -0.78465386487236
  C   5.09787685157248     -0.94124715793240      0.19774763239659
  S   5.62158135530453      0.58314699126212      0.77064378049314
  C   4.18001836162536      1.49582166878214      0.56850683113058
  N   3.03669977322519      1.11473697922703      0.12347150707868
  H   4.85111026720713     -4.11221255103545     -0.51062295404050
  H   10.96500941187234     -2.13675374228948     -0.38152628041596
  H   10.76395267201771     -0.94619964007902      0.91789439024766
  H   10.02741705795224      0.14349589949106     -1.44693080756981
  H   7.43147983258299     -0.40676445699204     -1.35945019597728
  H   4.29902477471286      2.53271695105733      0.86787106299712
