23
Coordinates from ORCA-job 13046optt
  Br  1.61709184954301      6.71717217111505      0.61179587379612
  C   3.20517342397795      5.71602261404943      0.43380411488912
  C   3.17692869170334      4.42459955895434      0.03537762336779
  N   2.00142426814375      3.85893472277890     -0.43729458118408
  C   1.71537921251610      2.62298922022068     -0.40559998069259
  C   2.46936760014496      1.51355120429003      0.19775539397493
  N   3.72430348258585      1.41734818371329      0.39296203030985
  C   4.64766897145057      2.40729275947615      0.11021633878411
  C   4.47066153002284      3.74153696565395     -0.04172606344748
  C   5.67061149368111      4.59797996428589     -0.17102442499915
  N   6.64747643058304      4.09067336728315     -0.84558248045971
  N   7.84805131992922      4.61818485922470     -0.95882392464430
  C   8.39239473208339      5.70836251512563     -0.30312118448074
  C   7.80720680060136      6.59317941743938      0.49807903755507
  O   6.50851518650713      6.73128975914926      0.87525003823868
  C   5.50025043579177      5.91563448922907      0.48924922102185
  N   4.34959164106469      6.38447777181026      0.76475695705674
  H   0.75996327193587      2.33975861872983     -0.84714841495624
  H   1.86752475790745      0.64815738060901      0.47394977888853
  H   5.66755297927517      2.04696591531366      0.11165670103415
  H   8.46445043730466      4.05954228490179     -1.52198604576512
  H   9.44971189053915      5.83491091833257     -0.48265047194974
  H   8.40369959270754      7.38143533831391      0.92910446366220
