34
Coordinates from ORCA-job 13044optt
  Br  1.24205837813894     -0.02900554493042     -0.02087517774003
  C   3.12798183341695      0.08786941196400      0.00991274517053
  C   3.85403007993351      1.16831018275057      0.42368649061053
  N   5.21726924040878      1.17161126427612      0.13178466886398
  C   6.00448057281287      2.40541885847005     -0.03228118526946
  C   5.33121900313186      3.44671455087256     -0.91650924960128
  N   4.38889666799074      4.25856091324397     -0.17009325210995
  C   3.16380939845023      3.57886703790479      0.20721080351623
  C   3.35616012562920      2.40067204864708      1.19859238253464
  C   4.32891813641839      2.77158641862029      2.37818986403109
  C   3.48830199330276      2.85489695020151      3.65784723236198
  C   2.08751022718986      3.14679128446749      3.14318549994642
  C   2.00207850394824      2.22094591998281      1.93604512685047
  N   5.85959407027657      0.11132253340154     -0.37526213491670
  C   5.21166486439404     -0.96272257293774     -0.62948952735648
  C   3.76826062917731     -1.10698590967644     -0.53240968019265
  N   3.11279393004037     -2.14682064752618     -0.88658740630164
  H   6.92035557974629      2.06389365066284     -0.50485928649356
  H   6.26093617004712      2.84987490681686      0.92568647088813
  H   4.87375626814596      2.93713969618511     -1.77949253932836
  H   6.11153224243578      4.10725743338114     -1.29665053023323
  H   4.16895218859439      5.10385006968316     -0.67887524091399
  H   2.61521227212805      3.17917767228011     -0.66018269442153
  H   2.52171465858076      4.31892934270474      0.68731427389705
  H   4.78330015054158      3.73757943809634      2.16284837192961
  H   5.12930474112258      2.04177052814712      2.48544859959549
  H   3.87038675297817      3.60345564291549      4.35123333969039
  H   3.48902473189794      1.89319076385154      4.17552281633895
  H   2.00260982074980      4.19530302553363      2.84541046090474
  H   1.30120738032690      2.94579809412510      3.87034098792696
  H   1.15116269411799      2.42638451856303      1.29088437261745
  H   1.90504193670457      1.19816672107071      2.29819439606672
  H   5.79914375320243     -1.79193613959896     -1.00919236572177
  H   3.74933100401899     -2.87086806415000     -1.21557863314072
