27
Coordinates from ORCA-job 13049optt
  Br  0.86685584764854     -0.29278170444352     -0.23724987835460
  C   2.73074670226352     -0.13460683206256     -0.11454380054616
  C   3.49023124236977     -1.22819062678047      0.13824108441576
  N   2.87037738297333     -2.48199079952727      0.33138858565557
  C   3.10109307753319     -3.52743872947686     -0.66144564154013
  C   4.36443373606018     -4.33521429225561     -0.37652893768463
  N   5.59320231953095     -3.56871526726966     -0.32899629380129
  C   5.64816873105263     -2.49389623936558      0.64693665471604
  C   4.94556210482622     -1.21183376723234      0.23561101758950
  C   5.65619117502748     -0.10486804013856     -0.06517695853435
  S   4.98692250495728      1.43265230951904     -0.52649957520733
  C   3.24153260472812      1.23548896785176     -0.29303855907376
  N   2.46580774943532      2.23124137157978     -0.35256967294782
  C   7.08689238454546     -0.08557315484556     -0.04290710635210
  N   8.23374012609488     -0.03619902080975     -0.05041986078600
  C   2.28240227429118     -2.80182154627098      1.54071514557823
  N   2.15087035945388     -2.10013025466218      2.58381959564175
  H   3.15974427718597     -3.05070164911594     -1.64236275665921
  H   2.22535427393768     -4.18056537119271     -0.67032479357812
  H   4.47550387119324     -5.11687180803618     -1.13027315744444
  H   4.24582426563474     -4.83440911221767      0.59059302005586
  H   5.88480741623568     -3.25249441235541     -1.24548348254378
  H   6.69211383663821     -2.26724637464875      0.86094898894454
  H   5.19978793419272     -2.85829712655380      1.57509301656225
  H   2.95498078763249      3.11662016474451     -0.47111265708129
  H   1.88705874058015     -3.81821645833184      1.53732227714682
  H   2.54379427397714     -1.16394022610191      2.48426374582868
