22
Coordinates from ORCA-job 13045optt
  Br  8.11551911880457      3.13333561316737      2.18055304148532
  C   7.07052749677078      1.71245171071068      1.57420716240814
  C   6.00063027829556      1.22846101219284      2.22186167786063
  N   5.49575291145460      1.94161989624994      3.32186594179196
  C   4.87295072666856      1.39026134855669      4.27516168593930
  C   4.56825297106065     -0.04109333897681      4.49883808267861
  N   4.35354365306415     -0.93997523029620      3.62819754464061
  C   4.47201676109989     -0.75854055780232      2.25700814460066
  C   5.26417473408911      0.11716605686743      1.60460521905359
  C   5.49239832410081     -0.00340507668942      0.16156076613167
  C   6.61951808917537      0.53057573422512     -0.36946273866160
  O   7.51412293401410      1.22542159282385      0.38808185191873
  N   7.11449737648194      0.33326417816766     -1.63542591153751
  C   6.34982153361542      0.20077145974321     -2.62270944181896
  O   4.97831281299989      0.30821839236407     -2.57790366812258
  C   4.44055561410889     -0.70447122272395     -1.78623915438827
  N   4.64193810614998     -0.83692893266638     -0.55981710173613
  H   4.51793488772084      2.05811231428614      5.06127170132920
  H   4.44530692610633     -0.32513336613169      5.54341713408886
  H   3.96568707244244     -1.51309982229033      1.67150874480946
  H   6.74003634178671      0.00554574307504     -3.61570689289595
  H   3.80350132998936     -1.37955750485294     -2.34587378957575
