24
Coordinates from ORCA-job 13047optt
  Br  1.00378587059504     -0.09195644321036     -0.25088752487650
  C   2.89132087208353      0.01231703179786     -0.12402372991372
  C   3.49229879384081      1.25999653882600      0.08065833772535
  N   2.70508201646659      2.40407750674004      0.28626400684522
  C   3.03254793976474      3.45603131801487     -0.30703682431245
  C   4.16515372215063      3.61704759761242     -1.29867075451840
  N   5.48987515126298      3.54338323865952     -0.69569497647451
  C   5.58037890053234      2.61038466451522      0.43014111070190
  C   4.88879818836185      1.30352295221049      0.14327521899408
  C   5.58937239427843      0.11394636693143     -0.00042800271102
  C   4.88658506088489     -1.06137181895597     -0.19840351282063
  N   3.55728862428065     -1.10628954115307     -0.26368617685312
  O   2.19623198103254      4.55722572353116     -0.07084809949461
  C   2.76767672011144      5.70484926634146      0.27951732732341
  O   3.92735241926427      5.89624087953781      0.47763464284322
  C   1.75365951502404      6.76185570567684      0.40943311069520
  N   1.00363154743320      7.61881938617916      0.51610277808564
  H   4.07220923313501      4.55203392491864     -1.84629228971035
  H   4.05304154408228      2.79799765761941     -2.01388898119229
  H   5.75290823809279      4.46486131612219     -0.36779945693601
  H   5.12671893900021      3.03131131082971      1.33931242004827
  H   6.63337775918504      2.42548415787012      0.63837197889961
  H   6.67038875515745      0.10694060550687      0.04513861204399
  H   5.40031581397919     -2.00870934612184     -0.30818921439228
