22
Coordinates from ORCA-job 13056optt
  Br  1.21681589836565     -1.72703777256616      0.14673040558919
  C   2.88163800222801     -0.88973742709960      0.08458234700061
  C   3.02624379174682      0.46404290147249      0.19866813226692
  N   1.87162160091901      1.17872524198309      0.47859095159960
  C   1.64203244892167      2.41467354952417      0.34025193708574
  C   2.46095606569491      3.54709204378437     -0.17822487310412
  N   1.87239995917589      4.62339300665565     -0.54573397861601
  C   3.89820177105702      3.49476082811397     -0.17258521334968
  C   4.70915359362634      2.42470538279956      0.01803692754871
  N   6.07596490098273      2.67787932834075      0.07042279211148
  N   7.07518287857287      1.81205833467255      0.04562745443541
  C   6.77609608450781      0.56248069761985      0.02296637974195
  C   5.41021285595818      0.13043903865239      0.05022658507586
  O   5.25475174100290     -1.19320568822375      0.00045121371641
  C   4.01202573903999     -1.80152830968412     -0.06759046287486
  O   3.97859806646672     -2.98192874142418     -0.20484448438194
  C   4.37094778376447      1.01268937142113      0.11411561023753
  H   0.64416654791773      2.73350522396262      0.65146227910956
  H   0.86057842156166      4.54562591757321     -0.44648710330551
  H   4.36744349103262      4.45690130561419     -0.34323717906256
  H   6.37207054734725      3.64108005126439      0.04669807834011
  H   7.57889781010969     -0.15961428445661     -0.00412779916440
