23
Coordinates from ORCA-job 13055optt
  Br  1.51595092878967     -0.55160503421252      1.13467099038723
  C   3.09350082339827     -0.19163553808962      0.20254487942849
  C   3.54979991040626      1.04083485319480     -0.01818546324379
  N   4.79717376690496      1.22305869741435     -0.66162444095351
  C   5.08010315728230      2.62527719790354     -0.65004630013977
  C   4.07138009736424      3.33086802925483     -0.10831130694794
  N   3.86923504093046      4.66322823690340      0.09062733381248
  C   4.63945904923487      5.65611624326906     -0.62440780733076
  C   4.18891139161119      5.81266904119235     -2.05691843214878
  C   3.20144463624378      6.83212541843101     -2.41584262821928
  O   4.58082692059264      7.00760046149334     -2.69849963857097
  C   3.01944100717359      2.38012438971718      0.32749674358881
  O   1.94119166348128      2.67602166129496      0.77904620707130
  N   5.85801565931687      0.43282575781235     -0.21783412748006
  N   5.69989629739485     -0.75583909967008     -0.02837231441747
  S   4.11166723773765     -1.50843016377018     -0.27804331829222
  H   6.01581022647839      2.94942682877048     -1.07500732856913
  H   2.90767773493322      4.88893285735507      0.30865488521331
  H   5.69399388465399      5.37358720629453     -0.58851496158005
  H   4.54986758386602      6.61857031853777     -0.11932559146731
  H   4.24957963721084      4.92062375753256     -2.67544159022101
  H   2.80572494251005      7.48090219952436     -1.64081323502399
  H   2.56834840248457      6.68471667984639     -3.28285255489559
