21
Coordinates from ORCA-job 13052optt
  Br  1.10928482238997      2.14911833882092      0.07323577743483
  C   2.05879060451976      2.67743307350480     -1.46074675777948
  C   3.40780695023030      2.70257252800176     -1.42933836200543
  N   4.11242236656586      2.53944641589346     -0.22536987541674
  C   5.14619817704336      1.81593505729590     -0.13207078632498
  C   5.82171212784875      1.05095994961152     -1.19684832697474
  N   5.94427882157554      1.38663384038011     -2.41885870552822
  C   5.33566897661717      2.48818647583949     -2.99612163127477
  C   4.18609139134639      3.08209319505759     -2.61925232273856
  S   3.56276683770964      4.39229820913972     -3.63190628323900
  C   1.89860400902037      3.95349841889606     -3.54482762147469
  C   1.33251334859463      3.15524361617342     -2.60958083311809
  C   -0.09333485739876      3.10485667260240     -2.98576012870149
  N   -1.03701232918228      2.47375898336339     -2.42970259382869
  C   -0.15328710868448      3.99227839327540     -4.20046941574698
  N   0.98265947069766      4.47754584012705     -4.50890885496662
  H   5.61555078023214      1.75887735957429      0.85073245137416
  H   6.36095606993993      0.16126010259886     -0.87536626115067
  H   5.80746271090963      2.81127890539404     -3.91597264282205
  H   -1.91801772021247      2.63579095618629     -2.92143501591413
  H   -1.05611544976312      4.20693366826351     -4.76143180980364
