25
Coordinates from ORCA-job 13053optt
  Br  1.15283493574407      0.02196311457261     -0.43587874755090
  C   3.02378006521854      0.09229240962625     -0.20012803553447
  C   3.74706407800377      1.24315223374679     -0.12516857157249
  N   3.44282542126054      2.58997425650561     -0.16758574940986
  C   2.20567741468989      3.16407069024266      0.30962305161107
  C   1.92017501476457      4.40804133521121     -0.41701735653575
  N   1.72248104391322      5.38741361815316     -0.97517269128026
  C   4.65107230201624      3.40096214669470      0.03090957867996
  C   5.74461344461436      2.37464621709976      0.00450479060412
  C   7.07312954043282      2.44112233764600      0.03407826447028
  C   7.86924328968509      1.19572086353650      0.01937028582821
  N   9.14365654670241      1.15872279613770      0.04859420624996
  N   7.16420419281811     -0.01101804755119     -0.02689570328989
  C   5.87858509292178     -0.02670662051233     -0.06411346527157
  C   5.08335769860030     -1.22451615010825     -0.12082953198836
  C   3.73591030917926     -1.14833232299530     -0.18367454288771
  N   5.11836513189724      1.13874511867510     -0.04507043729288
  H   2.25801030359094      3.39871217440294      1.38021851735739
  H   1.38117560362445      2.47506894737816      0.15380642945917
  H   4.61108694281551      3.91413039988141      0.99913698725618
  H   4.75246416016257      4.15293644706113     -0.75272173052596
  H   7.57962919072346      3.39604678570513      0.07350316836440
  H   9.52583185562507      2.10088834396493      0.08030043513475
  H   5.61063759853936     -2.16622065332015     -0.11951800472601
  H   3.14818882245636     -2.05581644175454     -0.23427114714936
