23
Coordinates from ORCA-job 13066optt
  Br  1.09940331631919     -0.21996090128871     -0.86528950306738
  C   2.88198689714817      0.03352192233247     -0.35863800150835
  C   3.43379640921046      1.30250013436978     -0.35241781715359
  N   2.89960753665649      2.49493966596257     -0.66791676295511
  C   3.90649415883824      3.35632885842208     -0.47816430344866
  C   3.75257716686793      4.76257859799826     -0.71122272762949
  N   3.71222729310050      5.89749396500400     -0.87637801152998
  C   5.12565903898165      2.79248389724819     -0.03933019851935
  C   6.40427161700559      3.53253975663523      0.22602289714907
  C   7.40204330512302      2.72236793825706      0.92484585417526
  C   8.21648715108987      2.05569323383288      1.49869331556352
  C   4.81890442893353      1.44364366497508      0.04418767780325
  N   5.53170877470849      0.34685565942972      0.39708444092267
  C   4.98289165310986     -0.88565761043288      0.38733991819466
  C   3.66080747096285     -1.06372351012617      0.01187244767824
  C   5.81844494557552     -1.97328415177010      0.77532082640342
  C   6.52346254220737     -2.88576395757287      1.09982692136943
  H   6.19667834905407      4.42376393252062      0.82448570236373
  H   6.84019263541407      3.89095140170484     -0.71115088244088
  H   8.95490576498221      1.49233201595854      2.01898295271933
  H   6.49558157574641      0.46869832049471      0.69287973065852
  H   3.25013672859907     -2.06108867571541      0.01191855243710
  H   7.14273124036533     -3.70321415823989      1.38604697081458
