17
Coordinates from ORCA-job 1307optt
  C   1.00628534125144     -0.21444360825441      0.32375464266861
  C   2.43100293753866     -0.09671722754739     -0.20849375500431
  C   2.71737992928788     -1.12685160884669     -1.29570251359704
  C   2.74716311731567      1.32809007618290     -0.69909513387882
  O   4.12034488823813      1.48356447506552     -0.90557196791525
  C   1.98407163095738      1.66210709797398     -1.95748362118868
  O   2.53562080949041      1.99491882671957     -2.97215549460366
  H   0.79877221455117      0.53674176366325      1.08820327674715
  H   0.85305691362892     -1.19767311592905      0.76983011668346
  H   0.26645748152540     -0.10421265270336     -0.47201299931421
  H   3.12693436234149     -0.26222235575235      0.61820576987080
  H   2.01017503543094     -1.02873099087952     -2.12434645134128
  H   2.62255537651775     -2.13857805395165     -0.90008795742877
  H   3.72536667924720     -1.00377630773884     -1.69118109863324
  H   2.40020138080804      2.03653666426233      0.06916989452170
  H   4.24525416592356      1.80602223137783     -1.80984144138029
  H   0.88435773594594      1.59022478635788     -1.90519126620617
