29
Coordinates from ORCA-job 13077optt
  Br  1.08580203154371     -0.39302840024187      1.12906797303318
  C   2.04247218234346      0.93701720707936      0.19883416621287
  C   2.86956758361783      1.79788660540810      0.84227902759758
  N   2.96750250310300      2.00048001989555      2.20338362956588
  C   1.76780917612416      2.46351887667370      2.92027041698647
  C   1.05611893368614      3.69332533272596      2.33757603685886
  N   0.21884328448381      3.44645897883765      1.15909136521806
  C   0.65028963772139      4.10550037141959     -0.06123001466828
  C   -0.13323562049836      3.61257041751741     -1.29234122680539
  C   0.70070639453878      3.79009899824827     -2.54879186527504
  O   0.65268258486548      4.78085123603604     -3.22168421669212
  C   1.64458036626861      2.63231924877701     -2.97147983753249
  C   2.26828886995452      2.01409535887014     -1.77329135759521
  O   3.37556954671947      2.65251709011672     -1.34602142668083
  C   3.73885857912959      2.61266884187548     -0.01386489070313
  O   4.69260247393191      3.23165642450899      0.35173571334978
  N   1.68278495940061      1.09620151555978     -1.10921102781943
  H   3.77867995169941      2.57051096285067      2.40964498723467
  H   2.09555179956343      2.69856185968218      3.93280716756522
  H   1.05778669487812      1.63989205822456      3.00868586736584
  H   1.80815596510776      4.44992610520081      2.08928807614569
  H   0.44053998067406      4.11604787868869      3.13781123191996
  H   0.06943935121280      2.45711796668522      1.01038008633776
  H   1.73016660944802      3.99101628550725     -0.22889274811598
  H   0.49274046983779      5.18125103783697      0.04050295218329
  H   -0.38227697614794      2.55739760945282     -1.16575764141100
  H   -1.05228140913125      4.18247857909967     -1.41056945495631
  H   1.02435333768375      1.88293682521774     -3.46585201597690
  H   2.37690073823991      3.03672470824547     -3.66537097334301
