29
Coordinates from ORCA-job 13088optt
  Br  0.92728027232492     -0.01468158459540      0.00320661223117
  C   2.82568597413761     -0.01493224258374     -0.01879614748287
  C   3.46623787646339      1.19103235816886      0.20282491829681
  N   2.91215327020696      2.43111540942849      0.49250708069911
  C   3.94618663077650      3.45182013990471      0.27891973748038
  C   3.76741357335298      4.62457682670227      1.22432034687368
  N   4.84483679488380      5.58080815709399      1.03008099192404
  C   4.78823503234002      6.68142266337947      1.97447587736828
  C   5.90835387218989      7.60174588681281      1.75732322440847
  N   6.77703231951233      8.32260221340588      1.56660185126153
  C   5.26058433753255      2.67814647701898      0.49340925069840
  C   4.86219247007376      1.25897917511086      0.18694444615455
  C   5.62130918313670      0.13029244143358     -0.04050666932850
  C   4.97570118862140     -1.07848899341141     -0.26908036114529
  C   3.58610672345046     -1.16370263608700     -0.26296042432912
  C   2.97149961888980     -2.49205786405360     -0.53015660258574
  O   3.61700846805082     -3.47694276691870     -0.77474616472643
  H   1.99054352929958      2.61357939051885      0.12069209746838
  H   3.90865096709942      3.81444143354505     -0.75831050128235
  H   3.81843231600295      4.24917524917084      2.24986707317247
  H   2.76872687128162      5.06827469805628      1.09096580190342
  H   4.84216394528450      5.93883756887655      0.08103331854816
  H   4.87252418225337      6.27969600520658      2.98662426422322
  H   3.85601724043080      7.26189029381161      1.93205447246030
  H   5.57604732035913      2.76614503224370      1.53800307199082
  H   6.07353590635127      3.05171639289636     -0.12508528651563
  H   6.70249735885856      0.18584610984784     -0.04943285243126
  H   5.52915553250934     -1.98695674576192     -0.46510225221616
  H   1.87188722432548     -2.53738108922184     -0.49367717511984
