24
Coordinates from ORCA-job 13096optt
  Br  2.14659922215569     -1.40765878352375     -2.45517807705926
  C   2.68083174118975     -0.28152723277510     -1.05724653440623
  C   3.14008195618572      1.01066309709887     -1.28988094284423
  N   2.79263667357891      1.74189381387179     -2.48125343019335
  C   1.58898483225343      2.43968246136225     -2.00802230441998
  C   1.68919122579396      3.43275705058715     -1.12164154266590
  N   0.66201767914614      3.93963273497921     -0.32145561177155
  C   0.59489723716478      3.74946256647531      0.92763683651187
  C   1.39055566912259      2.84572518215357      1.87382748833216
  N   0.78918884111400      2.24432836381430      2.80208387864661
  N   2.78655276276604      2.61244220794662      1.68101679295259
  C   3.05813922819414      1.46849317022216      0.89113989479348
  N   3.57079907414790      1.76546941601236     -0.29286633387416
  N   2.59958861313069      0.28684693330703      1.25992200674423
  C   2.51628620237130     -0.63246296302597      0.29245915728917
  C   2.12495920592989     -1.95320740036033      0.67825048235594
  C   1.80119129350037     -3.05933894130565      1.00161465310223
  H   3.52316687932599      2.42282209749428     -2.66916779561926
  H   0.65499171005486      1.93563383295256     -2.22014172552677
  H   2.66088281020346      3.88534309182378     -0.95648131822096
  H   -0.24835697496705      4.21478952418254      1.44099541346683
  H   -0.20611338429403      2.46991711858002      2.80443945785542
  H   3.22297223117025      3.40153122934532      1.22109145369307
  H   1.51195527076118     -4.04123857121835      1.29285810085806
