23
Coordinates from ORCA-job 13093optt
  Br  2.35132277161030     -1.64607094791918     -2.34365626924236
  C   3.82794202559025     -1.40136428963533     -1.20176757573780
  C   3.68205067581625     -1.16826283068020      0.17375242435863
  N   4.70611326528362     -0.61224842786045      0.80911932220761
  C   5.89191850635449     -0.59566262070972      0.24229241479895
  C   6.98967038384754      0.04464139492420      0.91280114168155
  N   7.88815807904967      0.56175691206617      1.40175112271981
  C   6.08494251335324     -1.38516369046179     -0.92005885339710
  C   7.13974222276883     -2.46438465523826     -0.90701287240986
  N   6.66803232606301     -3.22424293620964      0.27674929241470
  C   5.51073990591495     -3.71104070376663      0.22146317443732
  O   4.88499870168958     -4.15850468739470      1.33088772763962
  C   3.48408570873029     -3.98603933070051      1.35612585530097
  O   3.09585094098274     -2.72621107769725      1.86464602363568
  C   2.59650246589154     -1.77566987499492      1.00658417987424
  N   1.37074282350124     -1.53001442938195      1.00756336633538
  N   5.03078844456638     -1.58889174116554     -1.69072004909077
  H   8.14507703523471     -2.10651119456469     -0.70247855355128
  H   7.11516809433966     -3.02470443758178     -1.84210335739861
  H   4.90378103484109     -3.78990690971131     -0.68739023354253
  H   3.10985499162858     -4.72595019454291      2.05557033954797
  H   3.05673811853201     -4.13932505367419      0.35879506147447
  H   1.14877896440994     -0.77322827309937      0.36308631794342
