25
Coordinates from ORCA-job 13092optt
  Br  0.80446905795032     -0.57993022606684      0.45024253852535
  C   2.65902220339367     -0.30941339087476      0.27975447445671
  C   3.49543956961624     -1.35637671253786      0.17022971037387
  N   3.20392552973733     -2.71781844772283      0.19733299530331
  C   4.30438060546257     -3.44608585798413     -0.43204366172438
  C   5.51533900791671     -2.57551908499705     -0.05015820275817
  N   6.68641931506717     -2.69971626194739     -0.89025088312328
  C   6.63648568315534     -2.30805767211465     -2.28094695067903
  C   6.13720994069926     -3.36498890450665     -3.17968567305317
  N   5.75385890891631     -4.18643109318308     -3.87932490034989
  C   7.82173327159787     -3.28069826741528     -0.38411356958029
  O   7.93958351888461     -3.68924177055309      0.73973972260472
  C   4.91778585426038     -1.18483115400246      0.01397155254972
  C   5.57889886169918     -0.01964837478687     -0.05276213649973
  C   4.94534544110410      1.28915140338110      0.04281830299548
  O   5.52777854901764      2.34141920497224     -0.01359000239150
  S   3.16428060784325      1.34673699365747      0.26423704802286
  H   2.26284018252516     -2.98465679347632     -0.05287595886841
  H   4.19134254600969     -3.49811638745685     -1.52034300155985
  H   4.39061792682883     -4.45635775918552     -0.03804144795980
  H   5.84056945311190     -2.85118614393826      0.95564781860528
  H   7.63562348235260     -2.02661658752864     -2.61602721766200
  H   6.00006890090793     -1.42869980214140     -2.39235551003881
  H   8.63469147080293     -3.32994914529991     -1.12647772245066
  H   6.65629011113897      0.00503223570906     -0.17797732473832
