28
Coordinates from ORCA-job 13094optt
  Br  0.99436031928115     -0.42238450148190     -0.07169936187909
  C   2.85363025383142     -0.14184540800568      0.11782491960537
  C   3.71386705747940     -1.13211560132225     -0.27590871150276
  N   3.51246359461041     -2.36557888196558     -0.78836658112939
  C   4.73449520891680     -3.02046211622758     -0.91323223495796
  C   5.70298039844895     -2.16588655060630     -0.51424228145758
  N   7.07662210104776     -2.32716056628085     -0.45257357772961
  C   7.59183467038802     -3.59943610759070     -0.93225162682790
  C   7.69608800004864     -3.58644963063310     -2.45715482739509
  N   8.08080842832176     -4.88127566682500     -2.98290963214881
  C   9.34746120218721     -5.34194622230975     -2.85068907196653
  O   10.22441488309986     -4.74970227496549     -2.26642525617256
  N   5.07445968312030     -0.96560231798026     -0.14339554147783
  C   5.63315988222794      0.27581913698931      0.26394856942020
  N   6.86506206242951      0.60345934757265      0.21334501340417
  C   4.60584414509889      1.18446110403044      0.74860679697382
  N   3.32721697987076      0.98163428924473      0.65381378357482
  H   2.59643148575859     -2.74741639285804     -0.94999627647094
  H   4.80642106398570     -4.03137036531975     -1.26746949598513
  H   7.46231969121632     -2.04373449173887      0.43807267512100
  H   6.96915247174246     -4.44218651145654     -0.60539717057967
  H   8.58798759257472     -3.74457760198490     -0.51927051536955
  H   8.44250968271482     -2.84635598093351     -2.74701974518285
  H   6.74307905844111     -3.30039508337665     -2.90112134858343
  H   7.42371717717088     -5.42970506243351     -3.50996842203202
  H   9.50439050551154     -6.32086383983065     -3.33035928264502
  H   7.44676509080681     -0.08894542136448     -0.24329629037768
  H   4.96145730966818      2.11602271965425      1.16913549377202
