19
Coordinates from ORCA-job 13101optt
  Br  1.02346930624163     -0.18407866873195      0.04530637102578
  C   2.87443244198285     -0.06506866434638     -0.17458982544159
  C   3.72514484531069     -1.06815833959703      0.13036826612696
  N   3.44383664222683     -2.29985568615246      0.63705096931059
  C   4.60851196617698     -2.90702599611446      0.74861292780138
  C   5.72989806174327     -2.11341678837486      0.32092444424030
  N   7.03368170850803     -2.48816546579281      0.30320125872934
  C   7.48864984284442     -3.70914711457616      0.88443259041043
  C   8.98981702815871     -3.79529428680938      0.82089577680350
  O   9.67634968453965     -2.92246283571528      0.37334696556969
  C   5.16695947697632     -0.91654743847007     -0.07751292997341
  N   5.80723436273399      0.17666957266821     -0.55800933129497
  N   5.21057065074702      1.21865392310472     -0.89304604630444
  S   3.50005555436655      1.40264282247580     -0.79918739886912
  H   4.66588645215783     -3.91640155614243      1.13578029242642
  H   7.74153638624737     -1.81797856246360      0.03867302575463
  H   7.08619747251601     -4.59366889719883      0.37140182522151
  H   7.20401332291529     -3.81163461398981      1.94305336580188
  H   9.42575479360648     -4.72606140377318      1.22429745266113
