28
Coordinates from ORCA-job 13104optt
  Br  0.97320548004182      0.02590762725562     -0.11440297654215
  C   2.85860921182616      0.15047979708943      0.05312002418769
  C   3.47471564723229      1.37208449418367     -0.12270764062294
  N   3.00083467185771      2.61968209077196     -0.46193866820998
  C   4.05850725731801      3.60618457361464     -0.17275555802418
  C   3.86764580680800      4.23771144221830      1.20408112325341
  N   4.87212256768101      5.25402129553757      1.43406919452599
  C   4.87200770602141      5.79931668503940      2.76485871953669
  C   5.54426363781750      7.15157129503288      2.79828924072629
  O   5.81598001807737      7.76789069116902      1.80163668444978
  C   5.80506390186510      7.67937063982161      4.13307971775797
  C   6.00273485149956      8.07898018770373      5.24462199120306
  C   5.35815597369490      2.77493702347466     -0.23778937616585
  C   4.86490854299079      1.37781976449225      0.02482555205270
  N   5.57084457566446      0.30684519389920      0.31243656897164
  C   4.86203590618821     -0.81752386899429      0.46224656639348
  N   3.54690285759207     -0.93454965646471      0.34516358240310
  H   2.04753466893966      2.84678318782480     -0.21630951773410
  H   4.04514525076144      4.38971513487565     -0.93188331277355
  H   3.97794564447976      3.45721486471612      1.96540005206877
  H   2.84014009835545      4.62626185221198      1.28884976511939
  H   4.82159540296837      6.00717540464326      0.75607242858204
  H   5.38678652526004      5.13504782919841      3.46642119869208
  H   3.86214641590790      5.96054688960073      3.18307096179706
  H   6.18666252687991      8.44932111598885      6.22618795014258
  H   6.09384036302011      3.11984673666748      0.48632388712305
  H   5.81195391410783      2.81702471814669     -1.23027542326601
  H   5.41171057514309     -1.71766700971896      0.70530726435197
