20
Coordinates from ORCA-job 13108optt
  Br  1.00330704800857     -0.30217716676384      0.17427686307734
  C   2.86490961314102     -0.24407898152497      0.04003662944316
  C   3.60845492961366     -1.37203190538642     -0.04919569010915
  N   2.96193949195199     -2.60224399526373     -0.03783072003803
  C   3.64067854619101     -3.67390333896587     -0.12424190863919
  C   5.10819969963879     -3.73499278521451     -0.26599259151678
  N   5.77374388125530     -4.80148167502351     -0.47050239780764
  C   5.78878125879018     -2.44703901429890     -0.21008817282615
  C   7.27586566842945     -2.41632211216167     -0.20735898868786
  O   7.95147473347988     -1.70163912291199     -0.88961987931079
  C   7.91948252654137     -3.30027443576075      0.79405786155704
  N   8.43655082347307     -3.88908440135349      1.62976466832295
  C   5.05655505739731     -1.31289882240167     -0.13110405452414
  O   5.73232584471389     -0.14064462347360     -0.07349167943609
  C   5.21026722536384      1.11419223232493     -0.03422155284166
  N   5.92268630701080      2.13811285094440     -0.04172493342411
  S   3.46338937627161      1.37197637249198      0.04790862072538
  H   3.10229800641328     -4.62036767805989     -0.11416751201021
  H   5.17204034096815     -5.62489138238177     -0.48244423691971
  H   6.91604962134666      1.91478998518535     -0.09306032503436
