23
Coordinates from ORCA-job 13111optt
  Br  3.88780802371041      0.40714182245652      1.77722582380385
  C   3.42467153218358      0.91095267466377      0.04320220002616
  C   2.47114696798744      1.82416361170732     -0.21975789805187
  N   1.76945794014077      2.49491621105313      0.79433502657899
  C   0.51805726922821      2.32108458917800      0.82378380978104
  C   -0.33446665498985      3.18279239040254      1.69734300994471
  N   -0.31099903929711      3.16981656693872      2.96405122886516
  C   -1.23124138414435      4.11924800839855      0.99470947109626
  C   -1.23199216129782      4.34346840207350     -0.31631648584375
  O   -0.44831647119947      3.63493349371152     -1.19691221064676
  C   0.86177771816918      4.02908765149103     -1.40034354853255
  N   1.40426964767367      5.10028416153782     -1.04745619011256
  N   1.51739738498345      3.05661226961807     -2.15026962437915
  C   2.24362197828480      2.14946522455462     -1.62447687317307
  C   2.98495925693251      1.26837620645121     -2.53217877884784
  N   3.85709138414602      0.39806094243730     -2.21151218930367
  O   4.13334518307535      0.23861083783960     -0.87013165123460
  H   -0.00074386583432      1.61946611058213      0.16403029385238
  H   0.37806449458698      2.49819107001498      3.30614336901397
  H   -1.89989244000874      4.69008395635080      1.62545515517832
  H   -1.88960730142045      5.06765107491622     -0.78286976052264
  H   0.77660292148593      5.71918096891994     -0.54096592555470
  H   2.80398761560381      1.36541175470268     -3.59608825193768
