24
Coordinates from ORCA-job 13128optt
  Br  4.67780802653252     -0.01959084708527      2.45866807719721
  C   5.92604639292149     -1.38786477814615      2.02677316122852
  C   7.21711704016179     -1.04685094426658      1.82287765230568
  N   7.31533667179492      0.06461426243124      0.91433862787350
  C   6.71660477075678     -0.37869585446976     -0.30075413966806
  C   7.37853182964754      0.09976057394645     -1.59501812486897
  N   8.18059454217529     -1.04957776412162     -2.02204871599262
  C   9.35028127747326     -1.12418064982154     -1.57459553822323
  N   10.03813738542144     -2.38261177370620     -1.37491552259659
  C   9.72255886770943     -2.51368356772104      0.01908199105844
  N   10.49458842489406     -1.99603090232660      0.95086138123214
  N   9.60232496062884     -1.68088418359150      1.91152660959579
  C   8.34341878460205     -1.98114345225823      1.50675354890186
  N   8.40993084328381     -2.61106789481631      0.35960156104001
  C   5.78108203752597     -1.35144571396986     -0.33926205692131
  C   5.41199590767386     -2.22781446163811      0.83358937168443
  O   4.85389621527642     -3.27219198879455      0.78100187470642
  H   8.21780917918653      0.51007018551924      0.79742897639721
  H   7.97339992037247      1.00176675310364     -1.40655818907570
  H   6.62322669374395      0.32505029622562     -2.34433074673247
  H   9.87887644325079     -0.29783008974809     -1.08511731376065
  H   9.53022167316055     -3.09460939438858     -1.89554827574474
  H   9.90407376624100     -1.22662430665165      2.75844503224124
  H   5.39213834556516     -1.67556350370453     -1.29479924187811
