28
Coordinates from ORCA-job 13138optt
  Br  1.22842105273861     -0.72905407142678      1.44814856322953
  C   2.77091979721011      0.27856071008468      1.07649633396221
  C   3.10118462855783      1.40896041172780      1.73181600347253
  N   2.16657264519721      2.13676007801217      2.47360642609545
  C   1.08153818323636      2.69329222669925      1.65791993561582
  C   1.52196839317796      3.41512482157712      0.34978891691724
  N   2.12422677954524      2.48975525788703     -0.60337531627642
  C   2.60072190655504      2.91576590551196     -1.69727148676114
  N   3.43310644045009      2.18509366103912     -2.50078537899329
  C   4.18970393727030      0.96940326063406     -2.15415434626164
  C   4.26914709645985      0.82534851253886     -0.65909322953537
  N   3.39775884007032     -0.06709402794494     -0.09724296438458
  C   4.90866088348095      1.72416070213732      0.11412268985978
  C   4.40559946639641      2.03720627820480      1.44314586099688
  N   4.84110184555918      2.93134272021382      2.25346296473136
  C   0.36485579633205      4.11479590504498     -0.23630216949388
  N   -0.52406244389344      4.64666974414179     -0.72784118050274
  H   2.64862264814904      2.84753371536746      3.01253746916630
  H   0.53708435162788      3.40719301708589      2.27564488938634
  H   0.38589036653722      1.90186490750122      1.37932229045474
  H   2.25256593007344      4.18200863619029      0.63312011204862
  H   2.41508205794512      3.92131513570246     -2.09324387429158
  H   3.70679074869844      2.63219850604377     -3.35826854284913
  H   5.18370953818055      1.07469994395882     -2.58939438476568
  H   3.72321637880395      0.08458436367681     -2.59644919148667
  H   2.90008092863201     -0.70464474644626     -0.69761064921615
  H   5.56591204461685      2.44503973140761     -0.35757572936225
  H   5.71661975839137      3.33211469342885      1.92447598824369
