27
Coordinates from ORCA-job 13133optt
  Br  1.24562269793313     -0.47298100622007      0.68056033149008
  C   3.09963003784411     -0.28677984793756      0.43576593383905
  C   3.95662463046013     -1.37503042746218      0.55418809679469
  N   3.47619690830853     -2.66568148501293      0.90352243915831
  C   3.52277382906302     -3.69819243705897     -0.13889344565554
  C   4.91508435688388     -4.28297480036065     -0.40374360256766
  N   5.90486438598220     -3.24879507927318     -0.73359610457225
  C   6.16450701218987     -2.38340434982747      0.35102183658143
  N   6.89753474227746     -2.77668456775845      1.29779545131144
  C   7.01593452091773     -1.92653683781899      2.48051478062049
  C   5.83152134415898     -2.03023062115738      3.33782027684897
  C   4.84955587596343     -2.11689604802239      4.01939476640347
  C   5.32133158425865     -1.14296077072848      0.32835803656329
  C   5.73165567574650      0.14617303904351      0.02551062267805
  Br  7.57118212943968      0.48224486291664     -0.32023475502191
  N   4.91747392193740      1.17491318682277     -0.06896799945727
  C   3.62331738627394      0.96467166233071      0.12754934059959
  H   3.94511599471676     -2.97747150841444      1.75053240417486
  H   3.11929779490581     -3.25787752056134     -1.05458983376536
  H   2.84200454528849     -4.50008594926148      0.15481367973943
  H   4.86857350270947     -5.00247760528655     -1.22274131913876
  H   5.28228222470593     -4.80746359961248      0.47929942957085
  H   5.58711193834479     -2.71651605093798     -1.53575465270845
  H   7.17197362647670     -0.87563545386055      2.21709687399062
  H   7.88969502942301     -2.25429256214008      3.04278712252595
  H   3.98379857213094     -2.18303073400610      4.63500635523951
  H   2.96833573165935      1.82299651160609      0.04198393475710
