24
Coordinates from ORCA-job 13130optt
  Br  1.29777502924786     -1.90760446961255      1.49325129113783
  C   2.59019435669003     -0.90261590563798      0.59893236476840
  C   2.50948603052418      0.41955817918035      0.41132809710946
  N   1.60714194002666      1.34532194470723      0.91855184699679
  C   1.05820614960395      2.05433717571403      0.02423952623422
  C   1.29077004534367      3.50475588007958      0.20908712448790
  N   0.50772167402238      4.37874686960767      0.64541056676472
  C   2.77668237181908      3.65906228257047     -0.21984665508655
  N   3.27633955016268      4.80925338197106     -0.43552945258522
  C   3.65662375556556      2.49240690068736     -0.47389750453632
  C   3.60534303413684      1.13986023021991     -0.26334313327970
  N   4.69366353730253      0.37238325997424     -0.68014178306490
  C   4.69726067483040     -0.89015379912370     -0.47737633140540
  C   5.91486380888504     -1.66690563417560     -0.94111146064666
  C   5.75615213242303     -3.11233099082839     -0.82892066056719
  N   5.56308489906215     -4.23394531265730     -0.69920659238372
  N   3.70361155590264     -1.58563465391283      0.14081668231250
  H   0.91606084383258      1.70017552662597     -1.00421246243031
  H   0.96833989008372      5.28724874790527      0.73949066002095
  H   2.59833197338822      5.55797402764410     -0.29181996875906
  H   4.58188858116292      2.81563084131524     -0.93530650426734
  H   6.77289468416190     -1.35184579914402     -0.34513258085312
  H   6.12095526254215     -1.39455860077243     -1.97586923196413
  H   3.74960821927978     -2.59112008233771      0.23260616199686
