29
Coordinates from ORCA-job 13134optt
  Br  1.36394043592132     -1.01230626214686     -1.76428974532555
  C   2.18034651058826      0.08447626622787     -0.47307518919502
  C   2.83020422508387      1.27210042059675     -0.84017296020708
  N   2.82012880112878      1.76515523541532     -2.15301062729178
  C   1.55750110975098      2.38030531145544     -2.59114621062602
  C   0.99983615093102      3.47893595155800     -1.66890752778892
  N   0.25196810699738      2.95597827957659     -0.54281897855561
  C   0.61685139663120      3.06278222338313      0.76465612523383
  N   1.56297721011214      3.78961041330681      1.19649304252812
  C   2.00108475009532      3.52116073951678      2.55170570394035
  C   3.34922425951467      2.73678633209382      2.53635178711135
  C   3.20846750476823      1.65699058118603      1.50797871864904
  C   3.43436694427429      1.99102349017756      0.17559833220754
  N   2.58352781832404      0.53992683408972      1.85513925194350
  C   2.12955118715448     -0.24885463173702      0.87680829201663
  C   1.51700111914148     -1.48715325741069      1.30104203400554
  N   1.03511601690205     -2.47009789283032      1.64076576101143
  H   3.56559836985400      2.44313717894016     -2.25483171068754
  H   0.80961923425726      1.59678858459678     -2.72384911623655
  H   1.74854701806103      2.80637357950024     -3.57667197958387
  H   0.35897564402033      4.13557692013809     -2.26328668241279
  H   1.80539731023096      4.09037604648114     -1.26051413031954
  H   -0.51542632131441      2.33708797669292     -0.74333700895359
  H   0.02832026967338      2.40977520951295      1.42045094967377
  H   2.15009429111708      4.45921543476719      3.08714321717255
  H   1.26971419386667      2.91911161101579      3.10591802705636
  H   4.15914144351544      3.41415440235689      2.26541587377515
  H   3.53852495352010      2.32089952547726      3.52472196891065
  H   3.92040004587857      2.92968349606161     -0.05727721805194
