24
Coordinates from ORCA-job 13146optt
  Br  1.26473372403620     -0.98764967721064     -1.65357243300530
  C   2.48292908276855     -0.09687330317989     -0.52596300080539
  C   2.91453146183164      1.16205403909811     -0.78140903848815
  N   2.61788900701442      1.86994386764122     -1.93745616365139
  C   2.16277942593833      3.04723607929647     -1.99585606923578
  C   1.76293286584338      3.99777279171301     -0.88963582326212
  N   2.27321437455131      5.14385474799552     -0.77390883958687
  C   0.72203246036457      3.56116686257943      0.11703963577414
  N   -0.49521443071052      3.71188831269051     -0.17642430115015
  C   1.32629030440313      2.87591575338710      1.28104341043628
  C   1.04890229249064      1.58815187052701      1.42869647732262
  O   1.80289663159729      0.69252044871421      2.15801556140413
  C   3.02163405578011      0.33701581700937      1.61184858294493
  N   3.99307768206294      1.31371612958020      1.49494827427507
  C   3.90505947140010      1.86959080749083      0.18571248086598
  O   4.47734297497750      2.87446301022112     -0.11143259594037
  C   3.15632558336185     -0.63332420978632      0.67123319854406
  H   2.07068182380044      3.48323500327608     -2.99223650477641
  H   2.96367874203947      5.33161699741443     -1.50514506395398
  H   -1.09538222107117      3.39063689983551      0.58550702472450
  H   2.16211510239387      3.35043437152371      1.78124989282413
  H   0.24643393689788      1.10666159075918      0.87797432247173
  H   4.22005159788189      1.98433238189137      2.22238175391473
  H   4.15906405034614     -1.01136059246755      0.50738921835361
