29
Coordinates from ORCA-job 13148optt
  Br  2.14548457101531     -1.14341422456112      1.69186786811440
  C   2.69859538410484      0.12871904236104      0.39397125497681
  C   3.19744607470902      1.36470697496188      0.81891922748010
  N   2.98087884970183      1.82980592610008      2.13075374560567
  C   1.60068032542068      2.33790349949669      2.27309297375598
  C   1.20393605506189      3.56473404156652      1.42675198074456
  N   1.03281630792599      3.29891604508668      0.00257339541429
  C   1.43984129432347      4.17421309698140     -0.98110033273177
  N   1.63364080160497      5.42633812314994     -0.84941478982967
  C   1.75774443098658      3.56142516357152     -2.34553485909679
  N   3.13656087383261      3.01464830383418     -2.44411105987034
  C   3.29617894717420      1.97063798079862     -1.50308196769904
  C   2.78534874719266      0.71220010610944     -1.79708379520500
  N   2.53901533375326     -0.20446173596346     -0.86577081331628
  C   3.66253636232045      2.22807900611290     -0.17777069785711
  C   4.26743786170807      3.47121259500018      0.18156457855692
  C   4.82137549167306      4.49398392809275      0.47356953697064
  H   3.64414222192528      2.56003894168787      2.36532576463485
  H   1.46355734297591      2.60550645624489      3.32110268210343
  H   0.92053770340060      1.50726902758143      2.06971113423512
  H   1.97636377195648      4.33180697087734      1.53891322690372
  H   0.28064943297575      3.97083800117401      1.85321151828727
  H   0.93622585058591      2.33176445795793     -0.26582872745234
  H   1.42504467572892      5.75525079488618      0.09131987882826
  H   1.06122547683421      2.75600796785240     -2.58506394463308
  H   1.65431148726532      4.34687062416553     -3.08910090477084
  H   3.78956524345648      3.77161035184815     -2.26409031509591
  H   2.53348715239904      0.46552979131376     -2.82181940709579
  H   5.29637192798716      5.41485874171118      0.71812284804196
