25
Coordinates from ORCA-job 13141optt
  Br  1.13434457743577     -0.19274506615644      0.34626536608338
  C   2.99566869748764     -0.15615040199984      0.09619289857234
  C   3.71616248066696     -1.28827645357085      0.11831351255284
  N   3.33662214297104     -2.60154994407407      0.33645308744616
  C   4.35119243020446     -3.49683068019159     -0.23701151377853
  C   5.63765505809810     -2.67842208047787     -0.05106225092998
  N   6.67930373589872     -2.90192290898114     -1.01288290995210
  C   7.30767938469599     -4.09879592103848     -1.09193371250248
  N   6.93420088193180     -5.10473044330262     -0.41112644636281
  C   7.63862385497073     -6.34470413398662     -0.64394812455917
  C   6.71823181075252     -7.36287110142360     -1.17580685429692
  N   5.99500414982836     -8.14543553835854     -1.59591189255637
  C   5.13777965060482     -1.25480839663950     -0.13686803450384
  N   5.90760785313021     -0.28014183261511     -0.43655518993447
  C   5.44173918550206      1.02788820645654     -0.51564807936511
  O   6.13626269582697      1.96251706265435     -0.78517044890537
  S   3.70235481352852      1.39630412847243     -0.19123977089574
  H   2.36434573720965     -2.83182354593902      0.19432396401040
  H   4.18921401697948     -3.68055393879972     -1.30425213834826
  H   4.38544254885871     -4.44331707380562      0.29190799448227
  H   6.00394848440804     -2.84443759471837      0.97198516968390
  H   7.13742981475538     -2.07532561138837     -1.36934354620032
  H   8.14029615653672     -4.12132421535322     -1.80160310167606
  H   8.03912320894964     -6.72708945251015      0.29729059124170
  H   8.47476662876757     -6.24945306225253     -1.34836856930545
