26
Coordinates from ORCA-job 13158optt
  Br  1.36006452642093      0.42658806674727     -0.11312274763696
  C   3.17647794588916      0.07391470324078      0.16234017698863
  C   3.77664489684695     -1.06699022114526     -0.19007405973102
  N   3.09362215021767     -2.16501954826286     -0.69710064274718
  C   2.19576065016379     -2.91065101682977      0.17421064132599
  C   2.90736402647713     -3.91650095067296      1.11096160950730
  N   4.23812704538034     -3.44199668567380      1.46121088706308
  C   5.18297626867594     -3.50284326155439      0.44864635921359
  N   5.46315492151227     -4.48160486732147     -0.30054550581809
  C   5.97093988310024     -2.23333680828051      0.16421223325975
  O   7.17062771418796     -2.23904281292741      0.14538497672154
  N   5.21165998506486     -1.08054327275468     -0.08681218860347
  C   5.87673264612589      0.17243897451638     -0.23676671604827
  N   7.03791601121498      0.37403324790138     -0.66431656376239
  C   5.10501824781546      1.36944744243107      0.27341242404409
  N   5.55998885671805      2.52346854466623      0.38315881593033
  O   3.84074658052664      1.11135011716149      0.73726691278513
  H   3.59615505768015     -2.70566201925786     -1.38570238179880
  H   1.45686184587936     -3.42661468033439     -0.43923452418509
  H   1.65170279479308     -2.18313513296757      0.77389765107881
  H   3.00521719010317     -4.89174552051459      0.63791307503530
  H   2.32140695527632     -4.06438692618426      2.01731219503394
  H   4.22259180260409     -2.55516446443250      1.94807269312477
  H   4.93067530391180     -5.31642915859692     -0.05867751002176
  H   7.52135747164440     -0.48250529566439     -0.92004496375172
  H   6.52220922176933      2.52893154671103      0.04239715299247
