26
Coordinates from ORCA-job 13154optt
  Br  1.17704403527369      0.26419113161480      0.88032292721427
  C   2.97572684518981      0.09089005475150      0.40303385990939
  C   3.54585328605522     -1.12051434468812      0.13562710705285
  N   2.82759466577352     -2.29215285687902      0.19398566288695
  C   3.42099792246890     -3.39452719853654     -0.05598459659936
  C   2.62824645426114     -4.66987469612613      0.09754831480725
  N   2.66853976939317     -5.52688801994528     -1.07721957558074
  C   2.20130666728972     -5.07439013420167     -2.29549110742961
  N   1.88744664261369     -5.75318095873824     -3.31500684718155
  C   4.86722101261163     -3.47428236713857     -0.40516577186502
  N   5.54284587652378     -4.50453797625606     -0.64300099981590
  O   5.54914720551003     -2.28567789785364     -0.45914013649687
  C   4.94323125080098     -1.10431773429388     -0.20166469938134
  C   5.66996010698339      0.03020971578697     -0.26910930048528
  C   5.05433230854275      1.30943881562960      0.00020829211486
  N   5.55140466304099      2.48231537988714     -0.02114131339925
  N   3.68861978893877      1.22588919704378      0.34031741793740
  H   1.61424516402691     -4.37222065397485      0.37458037982609
  H   3.05035197229435     -5.24000434150056      0.92893848774944
  H   2.54180042610584     -6.51299402859184     -0.90332049700347
  H   2.14065756445773     -3.98617403545684     -2.34912177267622
  H   1.98546741957665     -6.75676473656379     -3.15495371609439
  H   4.95015918002236     -5.32971814188951     -0.63639294323140
  H   6.71791465623170     -0.00705165404065     -0.52855585873780
  H   6.53431622870451      2.45732852567775     -0.27203084881992
  H   3.24656888730870      2.11400895628368      0.53673753529962
