23
Coordinates from ORCA-job 13151optt
  Br  1.81297285469947     -0.41394237666502     -1.16823757191829
  C   2.75741437073121      1.05853186797859     -0.52908529398173
  C   2.22801623718479      2.24168607072237     -0.16464093087797
  N   3.23156968373634      3.14550190071229      0.30479193161793
  C   4.16666088857900      2.54499651179829      1.10656464600194
  C   4.70170234381634      3.10177767979949      2.38515333232308
  N   4.42571040844887      4.17649709177393      2.98826463178204
  C   3.55775891456326      5.17965153046394      2.52411669597282
  N   3.92286588504621      6.30367380068344      2.08900749965163
  C   2.10167437730397      4.82255993570168      2.58688936357606
  N   1.48203416665106      4.84566741105976      1.49243418493374
  C   0.19012966724160      4.32935920174634      1.36141730909870
  N   -0.78172815129914      4.82074176364960      2.00270025095442
  C   0.04577830465240      3.20570784998898      0.37781199363443
  N   0.87597986562075      2.41696997776763     -0.16656284863954
  N   4.59458515488936      1.36074609964110      0.87034299269832
  O   4.08363149334789      0.85400149834411     -0.36252751637765
  H   2.93310601561711      4.09538217610580      0.47460357062622
  H   5.42198979407603      2.42884547434394      2.84480209487428
  H   4.94103670834651      6.38181377091016      2.08765511172389
  H   1.67573067640539      4.44784950848514      3.52059135404324
  H   -1.65896326000362      4.36969013713541      1.74254574114041
  H   -1.00365639965484      3.00729111785300      0.15136145714201
