24
Coordinates from ORCA-job 13165optt
  Br  4.82921240679323     -1.39204586398738      3.07231698670879
  C   5.72998084183798     -1.16308983321459      1.45539717926178
  C   7.09676356213877     -1.22330021700908      1.33088220090109
  N   7.61110923655629     -1.01714870550433      0.09087013276741
  C   6.90978072821382     -0.81074681600001     -0.97198229486085
  C   7.57342332276504     -0.71598843525902     -2.30173649401069
  N   8.80828339245695     -0.58347364992915     -2.55566811139735
  C   9.77781207322009     -0.35476228827426     -1.55536081416173
  N   10.17470166614559      0.78724897229124     -1.19331882877081
  N   10.34485302627829     -1.52981666763947     -1.01903315131493
  C   10.39475256575817     -1.47837291535196      0.38547649497033
  C   9.68494036170202     -2.30684623197638      1.14338352720019
  C   9.09133851995840     -1.83483409158812      2.40771413525242
  N   7.89166225815904     -1.40126954978404      2.47236089897255
  C   5.44542253209068     -0.75984338443465     -0.93873088527356
  O   4.69760461970796     -0.58384087383302     -1.87337479109254
  N   4.96349800258237     -0.94478772272358      0.36002580686033
  H   6.89168494597194     -0.80517014136889     -3.14504285121178
  H   9.66678345968442      1.51705909403349     -1.68421623250303
  H   9.86251267296171     -2.35249598390027     -1.35799448527348
  H   10.84732674470327     -0.57394618156346      0.76924288250685
  H   9.13047467019596     -3.10228125082627      0.65220800851208
  H   9.65342350970145     -1.83017471695160      3.33992067168931
  H   3.95565488041647     -0.91807254520519      0.45866001426763
