29
Coordinates from ORCA-job 13164optt
  Br  1.21765919514421     -0.91964389749779      0.16544761004724
  C   3.02861218081618     -0.49900780610686     -0.15273234976720
  C   4.02099200769192     -1.43981179538862      0.12917357255907
  N   3.66910169186626     -2.71762307377554      0.62905452208626
  C   3.49253087648114     -3.82360085851367     -0.30283352914680
  C   4.75501737756361     -4.12486133085619     -1.10149828967266
  N   5.86407428762477     -4.70923896645980     -0.35339987506143
  C   6.24946333558289     -4.31449226197837      0.92962268741209
  N   6.42600657333312     -5.22516023511767      1.80483449703885
  N   6.46434131787192     -2.96745052445136      1.12648195561403
  C   6.56608663434906     -1.95242366111428      0.11603451531964
  C   5.34939966973043     -1.06527314661987     -0.12286853731750
  N   5.66680626695533      0.12699696667374     -0.62484768021708
  C   4.70217822494095      0.99648522303274     -0.89106629137624
  C   3.35930532016881      0.74125234335970     -0.66610947598755
  C   3.40340955517745     -2.87843142544534      1.96050940084785
  O   3.04560335850679     -3.90535472483660      2.47498136097568
  H   2.68022614993941     -3.57946793974939     -0.99600297183732
  H   3.19623572736185     -4.68435314854769      0.29572944918674
  H   5.07327012505709     -3.22622587628378     -1.63323396668353
  H   4.49695773066132     -4.84727145864851     -1.87582432435700
  H   5.82308791737534     -5.71890742364037     -0.33694733073492
  H   6.83583395430408     -4.86004843175014      2.65934974170687
  H   6.68658723333799     -2.70547972951075      2.07095825441994
  H   6.85527961481396     -2.41569215029648     -0.82910748615464
  H   7.37653839710030     -1.26833721388521      0.36884082693471
  H   5.01453396136318      1.95195300695175     -1.29771915546934
  H   2.60088124478971      1.47963951214675     -0.88174381396433
  H   3.56198007009085     -1.94516997169039      2.52691668359857
