20
Coordinates from ORCA-job 13161optt
  Br  1.23066827259072      1.05107823213159      0.18205401101188
  C   2.99234149528349      0.44242237189060      0.09247926620454
  C   3.37758798622585     -0.82246314021515     -0.14791204485767
  N   2.97977934516293     -2.14861988845988     -0.39327780459925
  C   1.63601634626532     -2.66407533558001     -0.39241455100621
  C   1.31261754670262     -3.40799927350008      0.83757900862391
  N   1.07255895563816     -4.00520847630287      1.78414011875130
  C   4.11164400373932     -3.02080879432265     -0.45499304027533
  N   4.19037649885783     -4.25824745118215     -0.58470066668142
  N   5.22710653945159     -2.12862704997828     -0.32440700095594
  N   6.61060008489587     -2.07585852389012     -0.21363568150495
  N   6.92292246851995     -0.85620187213800      0.01750829781023
  C   5.78248656446730     -0.06730673164435      0.07641363658473
  C   4.76440750093543     -0.91150334834358     -0.14344564763266
  C   5.37657882383648      1.30030743073578      0.34804258867090
  O   5.97127681619251      2.28668439442766      0.59158391517828
  O   3.91982904313086      1.40822275598202      0.29508797299887
  H   1.48779116994471     -3.32693863640027     -1.24806279912329
  H   0.94419455680042     -1.82914913234649     -0.49626979724079
  H   3.29521598135861     -4.73670753086376     -0.61776978195712
