26
Coordinates from ORCA-job 13171optt
  Br  1.25635413192697      0.14084732870800     -0.93477398796158
  C   3.05978589515995      0.15715538405975     -0.41105819266651
  C   3.78771782105210     -0.99289152949213     -0.43263572381945
  N   3.16869266171185     -2.21067279519718     -0.79126828162276
  C   2.34687217168214     -2.87933148404228      0.20821431655777
  C   3.17478775537573     -3.85385047296536      1.06862712294808
  N   4.51980966969534     -3.34607570152282      1.30504870154447
  C   5.37466508485402     -3.39721318313350      0.20254830844907
  N   5.74165030192588     -4.41447478659209     -0.43422414287961
  O   5.90561338336408     -2.19463832644624     -0.20173370378675
  C   5.19587239434801     -1.03098847793935     -0.07927103390436
  C   5.88674001658637      0.05740187405148      0.30103125038897
  S   5.25351999888455      1.63946932455190      0.42646811164163
  C   3.53884434938089      1.48824617572732     -0.01082122178290
  O   2.86256170645704      2.48114337611289      0.02633459180698
  C   3.32561170738913     -2.71878945555213     -2.07210615901055
  N   3.93664574209570     -2.21154715968084     -3.05134772296282
  H   1.52798217922379     -3.39922436720470     -0.29122367660768
  H   1.89619956804878     -2.11046111838293      0.83836085635424
  H   3.26841250395020     -4.81629729657513      0.56710795844902
  H   2.67888665951043     -4.03127355130998      2.02266238123073
  H   4.53452841200568     -2.45864033059485      1.79074415151812
  H   5.41329355200125     -5.26110012532725      0.02138904480318
  H   6.93725501639175     -0.03635067646800      0.54365377374389
  H   2.83108248688606     -3.68316225277676     -2.18943620701725
  H   4.36361483009222     -1.31028037200777     -2.83729051541393
