24
Coordinates from ORCA-job 13175optt
  Br  1.09331294300785     -0.11377383529347     -0.33298747313875
  C   2.96421399808662     -0.05388006518487     -0.18008912135335
  C   3.66469054694108      1.16555768709694     -0.15433301309732
  N   2.99371946409775      2.36443551727008     -0.18329163275055
  C   3.70653202304844      3.61719910809718     -0.32377352987808
  C   5.00291226238875      3.52090046780343      0.46292296404875
  N   5.75053872794670      2.37733182479057     -0.03567902751835
  C   6.92267515456978      2.57742976017681     -0.71351488277136
  O   7.49236045118528      3.63707190632385     -0.79039449030536
  C   5.07498106567417      1.13638987699585     -0.04760443452500
  C   5.78662829013734     -0.05837405478635      0.07139353385686
  C   5.05730755676526     -1.21744000643279      0.01855117723341
  C   3.68870197723996     -1.21575310960745     -0.10227067505628
  O   3.25132512930941     -2.50860852589419     -0.09567030401268
  C   4.35693093111442     -3.31054371444769      0.02752916968863
  O   4.34056892051998     -4.48763389218060      0.06114345091120
  O   5.46897159669633     -2.52669222477110      0.10260536156342
  H   2.03032765673021      2.33184416418183     -0.47351892103436
  H   3.08233923360103      4.41975460573729      0.06867558908602
  H   3.94398526034696      3.84353442543614     -1.36912012342099
  H   4.79243975314400      3.37986131641052      1.52433724752953
  H   5.61933493118421      4.40478575821886      0.32616914181393
  H   7.29950634719511      1.66183840273767     -1.19212721995223
  H   6.85669577906932     -0.06323539267848      0.21804721308290
