23
Coordinates from ORCA-job 13173optt
  Br  9.17406326760056      0.48720941339618     -0.25062431636832
  C   7.63473681204221     -0.26212920968400     -0.99533915442643
  C   7.32944355010673     -0.27423057902121     -2.28772961330497
  N   6.11525378525559     -0.92497127567693     -2.62333075575579
  C   5.92118631984177     -2.11520036436615     -1.89656312286030
  C   5.52085133160927     -3.27685520274720     -2.62397488739011
  N   5.22945738265767     -4.17278436081509     -3.27977877675716
  C   6.37473165859498     -2.15565184177953     -0.63471602761580
  O   6.82199278175420     -0.95416244252606     -0.10623359480714
  C   6.97953763286074     -3.45083555665445     -0.09047697546134
  O   6.36611544917154     -4.43795437671334      0.17225049760211
  C   8.45507420458261     -3.24681935618610     -0.31305730163404
  C   8.86038022054263     -3.51174821953305     -1.56392363985658
  C   9.55383799513470     -2.44209246154301     -2.27611723480320
  C   9.04509563539007     -2.04708542560020     -3.44754563332163
  C   8.95735082291096     -0.62182616956023     -3.87300978909396
  N   8.13328831189437      0.19786730000525     -3.34751414900366
  H   5.90327566631500     -0.96412900307158     -3.60911371305609
  H   8.92371770395042     -2.44267887228175      0.24455055192582
  H   8.29882178312447     -4.22145616848568     -2.16755867124196
  H   10.17510480735061     -1.77017618688206     -1.69364706370425
  H   8.39419797752771     -2.72400380724085     -4.00046327749344
  H   9.54348489978100     -0.25028583303293     -4.71208335157172
