26
Coordinates from ORCA-job 13182optt
  Br  1.09734036013119     -0.16069656304564     -0.04677038335431
  C   2.93566759598515      0.09346121721031     -0.17953056937882
  C   3.55130888594292      1.25920098365092      0.01959982106628
  N   4.97702094974042      1.33887301169796     -0.12338233916997
  C   5.34895952933766      2.64562814489370      0.10151663502373
  C   6.77227206816287      3.11334016801403      0.03295826132133
  N   7.40244036982553      2.85453684838874     -1.24542241069669
  C   7.35813231004571      3.76230633516989     -2.25096750337296
  O   6.83715391524018      4.84906965028198     -2.17375100176929
  C   4.26756876586143      3.42540108249115      0.34448120058291
  C   3.05750885685796      2.61730776729169      0.32604395932966
  N   1.82226781690788      2.91023038597439      0.48382135214880
  C   5.69949524137466      0.12794765937854     -0.09060107483930
  C   5.03593922589984     -1.02173724785925     -0.29617165428276
  N   3.66654822178426     -1.04449070128157     -0.51350217184530
  C   7.09928187132914      0.09383978178467      0.16047733521546
  C   8.28222189766944      0.02929490225621      0.35726894701356
  H   7.36612907378935      2.65124017174682      0.81969100985951
  H   6.76826918706055      4.19068646558947      0.18675141770185
  H   7.83534209424617      1.95908629070327     -1.40354589714301
  H   7.86630957044030      3.40955593510698     -3.16234735285824
  H   4.29958822444274      4.49546828050488      0.46978933904474
  H   1.71798755874042      3.90857355622082      0.65430000119090
  H   5.55183188537613     -1.96841260456445     -0.29117643387253
  H   3.18470364851674     -1.92666046923151     -0.45912218490765
  H   9.32571087529118     -0.02905105237403      0.55959169799210
