22
Coordinates from ORCA-job 13185optt
  Br  0.99944810093289     -1.51172662997696      0.07138729322703
  C   2.28376943836509     -0.55675055760920     -0.90056220145137
  C   2.06676317319951      0.00612341287048     -2.10244787604785
  N   3.13461340223162      0.82728547937334     -2.62669445197235
  C   4.35426068564001      0.08292215936143     -2.67832492940941
  C   5.12374472242230     -0.07811542817859     -3.95277946278668
  N   4.88439015248344      0.36322028664546     -5.10687831029953
  C   3.89281335578009      1.25645766989966     -5.53220939559654
  O   4.17864189867754      2.39369086576656     -5.80029808037375
  C   2.47986652394334      0.79806533948991     -5.58030150390950
  C   2.10030895410393     -0.24106283015191     -4.84885802745680
  C   0.84875870910887     -0.26090980882189     -4.07652049683392
  C   -0.50684407486678     -0.31080217396074     -4.70925959218657
  O   -0.66593271766212     -0.28364289313233     -5.89580173502588
  N   0.87929055517802     -0.17825389945382     -2.80157204740264
  N   4.82127140697605     -0.54900290081572     -1.67221117006802
  S   3.91128512043245     -0.64011764132374     -0.27464150130507
  H   3.26830505944864      1.63848141345259     -2.02434114141569
  H   5.98775410063992     -0.72844835892147     -3.82201153966904
  H   1.78306495147092      1.55367380724193     -5.92226099094312
  H   2.84267636766136     -0.95286765140937     -4.50249845032079
  H   -1.33724988616714     -0.35721966034560     -3.98491438875248
