21
Coordinates from ORCA-job 13199optt
  Br  1.34335069872898      0.21114610917926      0.21640403383148
  C   3.17570997525831     -0.06677979959072      0.13335178666459
  C   3.77358707489489     -1.27373906461052      0.09224173421798
  N   3.02219858416054     -2.43290951296717      0.10678686783890
  C   3.65003220563906     -3.54345260998169      0.08242975208885
  C   5.11931504360363     -3.71650258108956      0.03430250734570
  N   5.71214118129400     -4.84484260904372      0.01242908064809
  C   5.87240383661432     -2.47213670398906      0.00835492073775
  O   7.23643928103709     -2.54704122014884     -0.09589413846949
  C   7.89903881429450     -2.92244760263011      1.02395409501473
  O   7.41209763810227     -3.03408112732951      2.10094298903887
  C   5.22926092429060     -1.28915290870197      0.04423380040935
  N   5.91651030022032     -0.08104623257774      0.04335373920524
  C   5.24704589968469      0.99102898941411      0.08027733123127
  O   3.87903093254020      1.08414891784142      0.12382748143739
  C   5.85581081193863      2.28510445839957      0.08224882930390
  C   6.36142361228826      3.36821108758638      0.08371508780953
  H   3.05744603795637     -4.45730750427384      0.09427522549605
  H   5.04130622800779     -5.61236112119217      0.03880025880250
  H   8.95195342108986     -3.08365936727195      0.77438858866399
  H   6.82089749835564      4.32882040297785      0.08557602868334
