23
Coordinates from ORCA-job 13198optt
  Br  0.83713829479874      1.30163806972171      2.19934411848663
  C   2.03665898959261      1.32522730102857      0.74373752643569
  C   3.23845733503648      1.98024179122310      0.82929450569127
  N   3.50652552391706      3.00447688849358      1.70783358048014
  C   2.41238663757144      3.92112266501693      1.81809785127203
  C   1.82788488474331      4.15711478592552      0.63618301778732
  N   0.46334489424283      4.09955250780935      0.32949471390643
  C   0.24472588541586      3.36987438869853     -0.85271518440269
  O   0.87520052729315      3.55186365233738     -1.85396179580589
  C   -0.74900366662352      2.22449206799951     -0.72791888166257
  N   -1.99092354937889      2.33769603880507     -0.55739110562326
  S   -0.08719463417582      0.57385711171363     -0.94143373287172
  C   1.62959103139532      0.81044238275239     -0.53472030924351
  N   2.48064652062928      0.61275029660858     -1.48744329931909
  N   3.76430262768466      0.87269582183503     -1.20594249241910
  C   4.25932942444737      1.62447925809425     -0.16448873474990
  O   5.42237171299380      1.96624725869774     -0.08567617403227
  H   4.47665652452655      3.28148338058223      1.78501570354805
  H   1.94499732167664      4.05662882366146      2.78399552797690
  H   2.42657197619664      4.03772540682777     -0.25856481182691
  H   -0.11878128729280      3.80353796361196      1.10437115735259
  H   -2.28987445638090      3.31333251433430     -0.53736908526189
  H   4.40698748169019      0.68451962422140     -1.96374209571824
