21
Coordinates from ORCA-job 13197optt
  Br  1.35180760629437     -1.46212619366010      0.00217370568119
  C   3.14444680584508     -0.92820278617032      0.08089165312113
  C   3.93931123794365     -0.89575773616368     -1.01360164105010
  N   5.27653979626668     -0.57481100381952     -0.85341562123204
  C   5.89954578900564     -0.98837388299163      0.28003799032205
  C   5.15389684190620     -1.39897933398373      1.34289399924130
  N   5.53143814523001     -2.71922570851699      1.67374925503314
  C   4.60316996584417     -3.55878733211739      1.75235825756513
  O   4.79546235918268     -4.80838226361364      1.19179976180025
  C   4.88174467444045     -4.82853305344272     -0.16195584776757
  N   5.31417894918603     -5.81444990957488     -0.76895074781838
  O   4.37345350083706     -3.60901178017081     -0.69739565099248
  C   4.11693871551190     -3.44228974617657     -2.01060737477376
  O   4.18046947677003     -4.27351231616087     -2.85733107249258
  S   3.58481425995074     -1.76870916322826     -2.50463860204846
  C   3.74503968792171     -0.97589981890858      1.44395398624288
  O   3.09767022045195     -0.98538460696867      2.46320867308139
  H   5.82452602981096     -0.43505533286278     -1.68802188633839
  H   6.95223212550448     -1.22442019653521      0.20385761467052
  H   3.56951868224831     -3.38121980268142      2.04904613215539
  H   5.23279512984785     -5.73186803225219     -1.77605258440059
