22
Coordinates from ORCA-job 13195optt
  Br  1.97083741918131     -1.83027142783301     -1.26809790584043
  C   2.84472855055631     -0.52113144006676     -0.26180396724601
  C   2.24173511191869      0.64371551981244      0.08202418946802
  N   0.90245241217140      0.80839793930105     -0.28197424648403
  C   0.41345646887679      1.84779225744481     -0.80451152106396
  C   1.09099892787218      3.14339422959376     -1.13153960434086
  N   1.26533418264625      3.47767732682429     -2.33247667277636
  C   1.40809418363457      4.07609125340760      0.03361560604085
  O   1.56176533621582      5.24919598020093     -0.14946972224427
  C   1.50003959992675      3.39692242865236      1.38200232612881
  N   0.68996303299443      3.56295917035400      2.33538616857131
  N   2.65605674444278      2.65594914535538      1.48570237271898
  C   3.00979823909574      1.57413565314334      0.91967712064436
  N   4.31801906646739      1.17648025410648      1.17677205930963
  C   4.94209475739141      0.01072536645491      0.81678432594126
  O   6.07066185845790     -0.27381434728773      1.12006434807249
  N   4.13581000525401     -0.82132981552332      0.05993316567423
  H   -0.64162011738727      1.80712982385033     -1.07494855648667
  H   1.68448901193218      4.41383600391052     -2.36876685127079
  H   -0.03160933872739      4.23678506005349      2.08276664894114
  H   4.85425501949296      1.79674840075162      1.76914821886531
  H   4.54763952758572     -1.69438878250653     -0.23328750262304
