23
Coordinates from ORCA-job 13204optt
  Br  4.33791554681103      1.38582095451045     -3.31764953416004
  C   5.18573321526257      0.98369365931861     -1.69746483335577
  C   6.21305870684479      1.71089528222343     -1.20400538667124
  N   6.79863571431223      1.29159953384509     -0.04611728524683
  C   6.62101441642753     -0.04748056740700      0.37270421727405
  C   7.65869722884922     -0.73354394395496      0.88094116902072
  N   8.96147281753661     -0.14042962812898      0.77293323214661
  C   9.34177405096672      0.19675002060851     -0.50504048978557
  O   9.21720804430940     -0.49344223070613     -1.48128596708495
  C   9.62279707353524      1.70639976810354     -0.63420080446781
  O   10.11985709958007      2.39054029193819      0.21476928536939
  N   8.92496348123480      2.19916855757504     -1.74286695843233
  C   7.99305185731205      3.21831522005005     -1.47527042904652
  N   8.18951228397593      4.33641373855816     -0.96504386744650
  O   6.68825476715424      2.83919461599043     -1.77608677645721
  N   5.36607084941810     -0.58620955703320      0.13545470633492
  C   4.71346728581435     -0.09471108462619     -0.85667453626998
  H   7.29131698744242      1.95801027361962      0.53420071000295
  H   7.54390160237790     -1.73261972479080      1.26921570077409
  H   9.22984097524110      0.54055184749037      1.47309032246566
  H   8.59153978404200      1.45479649254544     -2.34724424263937
  H   9.18498759224570      4.51455526775915     -0.85228442421776
  H   3.74192861930591     -0.52326878748882     -1.08507380810651
