25
Coordinates from ORCA-job 13206optt
  Br  1.33924049963117      0.11064980500363      0.72229521352501
  C   3.11667525325799      0.04487645170823      0.14186847997412
  C   3.76075704801558     -1.12234397215038      0.01044138980460
  N   5.12465370831737     -1.09884230418838     -0.39730815718290
  C   5.85791389625005      0.04973214413707     -0.09392366558468
  C   5.20279204306350      1.20595637893851      0.02383691819588
  N   5.82820804312002      2.43085350932886      0.25879281959449
  C   6.88282876302942      2.90511256109850     -0.47695172547658
  O   7.49627728717787      3.90126600101513     -0.20241299459066
  N   3.78516617514052      1.23552919820263     -0.08050866567665
  C   3.09185481548387      2.46251253646469     -0.38488169897403
  C   2.83959892429562      3.34150498944136      0.82618955642796
  O   3.43641140981727      3.22779525722281      1.85767676723759
  N   5.66555383962558     -2.32707915971687     -0.31169630828539
  C   4.73058214784751     -3.17226429750229     -0.01930101811422
  C   3.42923615895833     -2.53178312121408      0.22509179071430
  N   2.28186299147224     -3.00866264076323      0.51970304884767
  H   6.91786152459047     -0.05846172082987      0.07274662611532
  H   5.55591000879969      2.95574380134537      1.08352214138181
  H   7.10002076968334      2.27457062515621     -1.35388201403271
  H   2.14458366050376      2.24485940486073     -0.87614304463166
  H   3.68429389579170      3.05611776480832     -1.08842606972724
  H   2.08118355712134      4.13294405566203      0.68457895583193
  H   4.94416039523493     -4.22836997344599      0.04211333525530
  H   2.32137318377079     -4.02521729458299      0.57257831937072
