25
Coordinates from ORCA-job 13219optt
  Br  1.18880052000502      0.15585757805784     -0.58626780377362
  C   3.03910253047452      0.09511870109643     -0.23752182262255
  C   3.71235163464158     -1.07541443113733     -0.39134410182991
  N   3.02727646969591     -2.24986603541054     -0.74950800690196
  C   2.23707741258542     -2.93085403393489      0.26196101888765
  C   3.10878285140381     -3.78147202923034      1.27537369075366
  N   4.46605717403638     -3.29404482007878      1.32198663505335
  C   5.17570526714371     -3.48403614995083      0.16339793073580
  O   5.25856157088519     -4.52184407393465     -0.42366650548979
  O   5.79159679468953     -2.36657027837966     -0.34425031301030
  C   5.16331214059847     -1.14905559821072     -0.16923407026258
  C   5.93339842738369     -0.10660429376419      0.14838139056540
  S   5.36863202884982      1.50130605100030      0.35022841733183
  C   3.60814370531928      1.38804798110446      0.16843788063089
  N   2.88222191906229      2.41197035944084      0.33971903180790
  C   2.47583709862212     -3.68734290760599      2.63827606808073
  O   2.97718745078925     -3.10303174410942      3.55605333136762
  H   3.55476290341553     -2.87129783107033     -1.34697429422495
  H   1.51011747148612     -3.57746177184812     -0.22771962428245
  H   1.67838729490386     -2.17034554004411      0.80727680384238
  H   3.12815948293466     -4.82388931517091      0.95440641348102
  H   4.57634259006398     -2.41106610138230      1.80347748502155
  H   6.99593482537966     -0.24243661537478      0.29813601779094
  H   3.41303137044827      3.23905649242099      0.60432154911028
  H   1.47621906518190     -4.15072359248295      2.73005287793711
