26
Coordinates from ORCA-job 13214optt
  Br  3.04316946403535     -0.83655575545032     -2.75428189958044
  C   3.04168934184394     -0.07089139214569     -1.04386957993799
  C   2.25606398706896      0.99604157576092     -0.78425067254951
  N   1.46358317088186      1.68272913299007     -1.63664285564858
  C   0.47638291097772      2.68886104345040     -1.27175176592564
  C   1.00482834469427      4.09931627310444     -0.94954915350532
  N   1.43790211860008      4.23925053288018      0.43093399884953
  C   2.71026517936016      3.89811442597229      0.76275962570325
  O   3.64178717064821      3.89440730408703      0.00252985429017
  N   2.81567832238332      3.45233350160310      2.13356597374929
  C   3.47777285445401      2.25063416974934      2.36328771594719
  N   4.13492205703353      2.04003883180573      3.41659472294119
  C   3.29862804031265      1.22423052254742      1.27392997847688
  O   2.23179600377625      1.50731345813094      0.47577739180858
  N   4.08490896696890      0.25887456692705      1.11964651910003
  C   3.91600823936340     -0.59911322696820     -0.00553563835023
  N   4.52998078550146     -1.70079551869031     -0.10883929434883
  H   1.44101708793022      1.31365879021295     -2.57343735696591
  H   -0.12705108674333      2.33424430745694     -0.43071194963844
  H   -0.19145573650694      2.76784881548168     -2.12865576626543
  H   0.20375061138128      4.81549832525539     -1.13587689397390
  H   1.84772676995426      4.34802724805122     -1.59167688551751
  H   0.75756744868684      3.99846876182312      1.13574025792467
  H   3.05575973281639      4.16035296455492      2.81646586040941
  H   4.48780074042408      1.08477366572550      3.42447549359585
  H   5.11651747415306     -1.84266232431617      0.71137231941167
