24
Coordinates from ORCA-job 13211optt
  Br  1.58973047464852     -1.96649415677226      0.29233251412241
  C   2.71417941326206     -0.46459665756234      0.30382224088918
  C   2.25059891403861      0.79476740255499      0.27378317963608
  N   0.86516899740753      1.02528117133091      0.24489834955996
  C   0.28373922338412      2.20858095450662     -0.14968726402400
  C   0.77995034828834      2.99806935293702     -1.10822285583652
  N   0.72989993659334      4.38976792779308     -0.85420256024014
  C   1.48335182651696      4.93293511105617      0.17121670466710
  O   1.66484340534121      6.10251621288921      0.32162608175148
  N   2.07316826579653      3.91952647472348      1.05106052851249
  C   3.10971826367303      3.22095995791333      0.46505945974460
  C   3.24161608540302      1.88988669459293      0.23062045683560
  C   4.59043968874754      1.49638522933732     -0.23162824750801
  O   5.43064242988631      2.25919758100664     -0.63763530749115
  C   4.96675324219822      0.02348627337520     -0.11375862814589
  N   6.10029183243414     -0.43367070891863     -0.36585870692784
  O   4.01856858060960     -0.82242691040845      0.39226810595779
  H   0.29569953392380      0.32883783966087      0.69867085649465
  H   -0.50108804710518      2.59372044513211      0.49854588907851
  H   1.48730266267378      2.63757358315717     -1.84605381738260
  H   0.47113346091078      5.05744863419159     -1.56734757553455
  H   1.36973575136646      3.31965503781903      1.45708128309058
  H   3.93863685597532      3.84583575288831      0.14680534632074
  H   6.69291885402590      0.33375679679567     -0.68739603357045
