25
Coordinates from ORCA-job 13218optt
  Br  1.10794718246830      0.00353870126013      0.19470599384036
  C   2.99200670244267      0.07256149976579      0.10202891544613
  C   3.60958211659043      1.27238958276330     -0.25279302078341
  N   2.89140540100755      2.40567088828525     -0.62427452726960
  C   3.15148095358238      3.50121401467292     -0.03994195354804
  C   3.99682657919735      3.60340718187849      1.22081160967361
  N   5.39177520993798      3.90913705912809      0.97824369346649
  C   6.23895408119165      3.31573186922253      0.08752400282767
  O   7.39491792812607      3.59885866258458     -0.01694082758065
  O   5.64687676432388      2.42295322591676     -0.76629916640619
  C   5.01018559693192      1.29075606327587     -0.28748548658566
  C   5.76367034100747      0.17278298499884      0.02072068787039
  C   5.11957720191269     -1.00073667280101      0.38229390339452
  C   3.73356162758368     -1.05332995970193      0.42037044585393
  N   2.56311808762679      4.64724916057554     -0.53857378579693
  C   2.82066346608132      5.95487730229360     -0.20223618286768
  O   2.28040410463345      6.88091500214516     -0.74101339540358
  H   3.87888634536095      2.65951742410535      1.75617412728136
  H   3.59805009096822      4.38664084024288      1.86228266569120
  H   5.85879994831752      4.53951588960500      1.60969005408639
  H   6.84151721913997      0.23698134076519     -0.04823992637292
  H   5.69650691419571     -1.88255087956848      0.62430755899657
  H   3.22079323135722     -1.96372794278445      0.69716672831000
  H   1.95587369140284      4.50899799090758     -1.33882989034687
  H   3.57161921461193      6.08164877046297      0.58930777622291
