22
Coordinates from ORCA-job 13215optt
  Br  0.79434929030752     -1.37636868022405     -0.01738181319055
  C   2.52572410892433     -0.68466956270624      0.00886541641033
  C   2.78126630907116      0.58052119098915      0.41657191126363
  N   1.75151398244906      1.34377706446290      0.96869706718996
  C   1.65255603321076      2.59723963256091      0.85804644576008
  C   2.56015040289516      3.49631574279645      0.07397913836676
  N   1.95365420326727      4.52058728458409     -0.62212706135588
  C   0.61361658314456      4.65063623423047     -0.93155117870628
  O   0.18555305462993      5.57780406020320     -1.55576549049107
  N   3.82635871060041      3.43749206289441      0.06960903317504
  C   4.55789661998770      2.44243859874019      0.73575141849414
  O   5.53175040995156      2.71608395493527      1.38208826486590
  C   4.16003490062541      1.03884962171870      0.44140597731860
  C   5.12845108067968      0.16120806813250      0.14795020440615
  O   4.89075055220780     -1.09328294205042     -0.24026785925775
  C   3.60075090407543     -1.58091125373473     -0.42228189483378
  N   3.41805333917810     -2.73045755133401     -0.89243546879355
  H   0.83467416214934      3.08303243135514      1.38857634299211
  H   2.57632398116450      5.21271968296584     -1.02439081593955
  H   -0.01579653313268      3.82589388313256     -0.56810145471245
  H   6.18109971478828      0.40612909465768      0.18103392267553
  H   4.30126818982469     -3.19203861831006     -1.09927210563735
