20
Coordinates from ORCA-job 13210optt
  Br  0.94740559307859     -0.15759074384985      1.09830359682344
  C   2.72298841243499      0.02314351011087      0.54077343376326
  C   3.20814774453099      1.22158046942363      0.16724825105501
  N   2.52224078086181      2.42577790137929      0.11169301668850
  C   3.43293992244055      3.28301500732995     -0.23212817309147
  C   3.16304857119269      4.74217212413085     -0.40608605281839
  N   3.67485414719838      5.24110291570396     -1.66174495420205
  C   4.67470220965841      6.15644069688625     -1.73025937964359
  O   5.18355728709504      6.70031200541612     -0.78166266245792
  N   4.72604205099798      2.77628591174673     -0.43874956662804
  C   4.58618985029300      1.51330119486808     -0.19827142951888
  S   5.92180836120349      0.41615043009941     -0.26245942411039
  C   5.17809481530275     -1.18382612485029     -0.12435685730225
  N   5.79180114302318     -2.24312959973521     -0.41001474723845
  S   3.56902532198694     -1.48037385074193      0.58145934072540
  H   3.67437991598950      5.30246045874078      0.37915750227991
  H   2.08986280094732      4.90781322954264     -0.31565429785626
  H   3.36340225652558      4.81620467922873     -2.51925919164611
  H   4.97193688105022      6.37157118306919     -2.76866703329972
  H   6.73157193418852     -2.08641139849922     -0.77232137152196
