22
Coordinates from ORCA-job 13221optt
  Br  1.68653041558504     -1.64878605923460      1.58121511091180
  C   2.72768345604568     -0.60169073005781      0.40906708613590
  C   2.37270082305028      0.70585770117893      0.15887008235846
  N   1.27250401231038      1.23656372843973      0.73478414897763
  C   0.91606734060976      2.53602807288569      0.43236240099261
  C   0.65606786804283      3.49607038661050      1.31144195302337
  N   0.60026849784001      4.81413299295704      0.87680129176833
  C   1.45790141447436      5.19034871449466      0.03347569179558
  S   2.92025655945491      4.51044052982313     -0.76198980092391
  C   3.42219775851317      2.85595779004603     -0.88432662030736
  C   3.26427227043645      1.51381359686043     -0.67707322256213
  C   4.35022130591707      0.73900542959067     -1.42925541423730
  O   4.91988293564933      1.24670008310356     -2.36533902396217
  N   4.68930546605736     -0.53540234116990     -1.00889492273514
  C   3.91727919879339     -1.12960998673260     -0.15814182760649
  C   4.33382964346710     -2.46308037069064      0.24497322797998
  N   4.65920500353445     -3.51253723845821      0.56799927749316
  H   0.86492038048550      0.74631536721597      1.51971415014463
  H   0.93974665438486      2.76546816081253     -0.62370956620632
  H   0.51974880543162      3.32535953977276      2.37226071110301
  H   1.43676561695420      6.21664534083200     -0.33309894448427
  H   4.32364457296221      3.00939929172010     -1.48413578965938
