25
Coordinates from ORCA-job 13227optt
  Br  1.41444310439214     -0.14562639264299     -1.39534747146081
  C   3.18787615151201     -0.10108310495066     -0.85999882924406
  C   3.83219488409704     -1.12712343205931     -0.29948899144917
  N   3.38664647651965     -2.40165044198344     -0.03527621968285
  C   4.40215376436979     -3.04452101967257      0.41889319543771
  C   5.64445672405574     -2.23607798965663      0.50183021183583
  N   6.82685765237021     -2.53380484627329      0.85710353153456
  N   5.19966370453898     -1.00337353242912      0.04790138178238
  C   5.74342440523686      0.28192555297036      0.02320106676429
  Br  7.36634372513338      0.59843470023358      0.90921187049241
  C   5.05445560046914      1.28476584928373     -0.52709673994522
  C   5.43234358738631      2.72624957291442     -0.55489655301923
  N   4.91657241186077      3.40386051781332      0.62759916662377
  C   5.17629306030195      4.83884663906375      0.58677049744775
  C   4.82775059205137      5.47193311450210      1.85595208510718
  C   4.56141236818667      5.97628658354456      2.90791912208785
  O   3.80527421240173      1.07430328561661     -1.10485717067965
  H   4.35204641014771     -4.08770097533242      0.70336004525759
  H   6.87011023626471     -3.50378418006109      1.15597255137331
  H   4.96308265050798      3.17281660272121     -1.43466169755775
  H   6.51837138623522      2.82298016357735     -0.66933752698428
  H   5.33804852763751      3.00561386684629      1.46068729306684
  H   4.57063037546999      5.27498540631742     -0.21232992442572
  H   6.22674162705284      5.07216197075165      0.35648243551653
  H   4.31780636180021      6.42658208890516      3.84040667012075
