21
Coordinates from ORCA-job 13224optt
  Br  1.15829582036439      0.15304137867882     -0.05968032019284
  C   3.02169752471030      0.03371656133854     -0.05892532471259
  C   3.75525053977980      1.16768476275414     -0.05924119442660
  N   3.30532121424737      2.48216863262388     -0.05986162440248
  C   4.34326297655708      3.23295845704204     -0.05985174040983
  C   5.61168947588432      2.46423080880921     -0.05922562049083
  N   6.83343935664594      2.78788704428483     -0.05900066682082
  N   5.14854632220095      1.14478994090985     -0.05890553077763
  C   5.86057084821258     -0.02325805996753     -0.05853364524398
  C   7.20919062595877     -0.22028419755732     -0.05838464528747
  C   7.44899259833987     -1.65444098509172     -0.05791716282917
  O   8.48394995988848     -2.27312918499573     -0.05774270059415
  C   6.07488568983158     -2.34179795907422     -0.05774070300633
  N   5.88313974695106     -3.58462392206767     -0.05741486434273
  C   5.07692991496702     -1.25183973780175     -0.05811630105781
  C   3.72530468955763     -1.23925476168666     -0.05810337958707
  Br  2.74634500478935     -2.83227980613630     -0.05695599512263
  H   4.28624463585720      4.31370680467128     -0.06023789366523
  H   6.94159788600185      3.79957944431718     -0.05929745860317
  H   7.96496808587926      0.54486339481317     -0.05854714440876
  H   6.80137708337516     -4.04571861586405     -0.05731608401789
