20
Coordinates from ORCA-job 13225optt
  Br  1.05386361736094      0.34435174850275     -0.03541675411536
  C   2.91984265986570      0.18876284106781      0.07212010077847
  C   3.70991251485942      1.28371544040842      0.06808738098659
  N   3.13893050988722      2.53857582770513     -0.00472382731446
  C   3.88334911340234      3.57128128965434      0.05481024455083
  C   5.32288890030561      3.45737674657902      0.20608102024142
  N   5.89993181342946      2.31916926850060      0.22562499719834
  N   5.13021372607666      1.20630149913481      0.11502002215957
  C   5.83296447646701      0.03132496422081      0.06929651799160
  C   7.15535512927821     -0.23412172893998      0.04622470123508
  C   8.33716053717376      0.64850110819838     -0.02765528734554
  O   9.41758998007895      0.31742033802687      0.37822747775968
  C   7.26008226059769     -1.73555673568572      0.07560071450140
  O   8.24444587232220     -2.40096894977555      0.03251486546201
  N   5.92443308841202     -2.29320857248602      0.12484142505893
  C   5.13817824457842     -1.29563305595644      0.11323875770755
  S   3.42700677382297     -1.46656737464884      0.16552679700381
  H   3.41587513083619      4.54828551389103     -0.00812146327414
  H   5.96212175974899      4.32483491842592      0.30301653384824
  H   8.18185389149614      1.62915491317662     -0.50031422443400
