23
Coordinates from ORCA-job 13236optt
  Br  1.08275820599466      0.13042317160305      0.64648952277920
  C   2.91533428218152     -0.02957498716013      0.23983417506502
  C   3.58198167069807     -1.20637235244999      0.13550314071994
  N   4.95959594418535     -1.22652505031175      0.03054858798685
  C   5.48573911057728     -2.57387569427067      0.09289873826432
  C   4.23578897540659     -3.40881067843849      0.24901638119713
  N   4.11985628584402     -4.65365570005524      0.39874370479608
  N   3.14284212723682     -2.53168210552332      0.16515410218748
  C   1.84209402405837     -2.94561429335759     -0.24129615178059
  N   1.35531767759493     -4.09489743815430     -0.14239967897095
  C   5.81293890686034     -0.13404326143374     -0.01060059130913
  O   7.01596545912342     -0.28275228621117     -0.06188171396905
  C   5.07608711952720      1.11040155442187      0.02126274404831
  C   3.70146078493694      1.16505387063895      0.15271443404683
  C   3.29255306418904      2.53329879637633      0.19159873541772
  N   4.25288697374443      3.41137451886441      0.09543314944526
  S   5.71622087183788      2.68659222611723     -0.04101103818835
  H   6.16680022102938     -2.68238522630349      0.93771612284377
  H   6.02605957638640     -2.83158459050723     -0.81969073928282
  H   5.02623248167023     -5.11389687891065      0.39254536635308
  H   1.29002591027368     -2.14221773612076     -0.71565904992541
  H   1.99303844632353     -4.74893921343112      0.30924750967856
  H   2.26842188031983      2.86768335461781      0.29083254859677
