23
Coordinates from ORCA-job 13234optt
  Br  0.89006024900650     -0.03966868295866     -0.00732804330356
  C   2.75689643191002     -0.19598630785036      0.12005749144679
  C   3.46111411726515     -1.36372517266574      0.03376285956626
  N   4.81376419253222     -1.30125688761172      0.09967976865624
  C   5.43387983788235     -2.60210087270138     -0.02906205976780
  C   4.23677998968630     -3.51613611954894     -0.11755210256778
  N   4.13429550271023     -4.76706898096963     -0.15125721308167
  N   3.10112408488800     -2.68449421332249     -0.14050953678994
  C   1.79667266922507     -3.26664676914954      0.03030651882418
  C   1.17302854257482     -2.87425834868336      1.38173940856066
  O   1.86305536438900     -2.54308709293633      2.29345789559855
  C   0.88616092662131     -3.08525256317004     -1.10390101080588
  N   0.14120762159475     -2.99940985886845     -1.96859976762595
  C   5.56825025071181     -0.12366679281844      0.24546536871295
  O   6.77166138032370     -0.20956718648182      0.26048815934314
  N   4.83359524727279      1.03424533314290      0.36367841290293
  C   3.53958721028744      0.97386120738694      0.30320619439599
  H   6.05661009468047     -2.82666562071920      0.83726624563343
  H   6.05622055692340     -2.64796013513403     -0.92439766306023
  H   5.03570297976310     -5.23259066643001     -0.11962297495025
  H   1.98423770523517     -4.34842322207917      0.10349107801451
  H   0.07724580710659     -2.97345151595064      1.44772767684301
  H   3.00384923740974      1.91531046952017      0.39890329345443
