26
Coordinates from ORCA-job 13230optt
  Br  1.11996730925590     -0.10729319346537     -0.31750400305573
  C   2.97771981733277      0.00424500276582     -0.06461162785928
  C   3.69701671093223     -1.14255893894396      0.01544337692489
  N   3.16448765565556     -2.40127284317831     -0.08194771522229
  C   3.88826850479212     -3.57297687019493     -0.01657038194894
  C   5.32299014121053     -3.34922659729380      0.20755027048826
  N   5.85252166215768     -2.19160204727603      0.30717264959710
  N   5.07247266967546     -1.09683693010235      0.20839010302182
  C   5.70968072110490      0.12668634380244      0.31268168535666
  C   5.03715500421648      1.27674059393722      0.23366554194679
  C   3.58665984578274      1.32416926627239      0.03537458924720
  N   2.87909042939776      2.38520988781675     -0.04755061335050
  N   3.28793880738464     -4.68107749938154     -0.14452360593392
  C   4.03670724805329     -5.91854713868428     -0.07393057342958
  C   3.08341376706204     -7.06667960424396     -0.40757100004863
  C   3.75735662952912     -8.36074718584471     -0.33777753532065
  N   4.31494326688080     -9.35961450006221     -0.27515123160996
  H   2.16742450122668     -2.47581582179644     -0.23775364046506
  H   5.99481674731796     -4.19074636088888      0.29689645200858
  H   6.77546738617475      0.04120733572397      0.46009368672864
  H   5.57686150746942      2.20978843514740      0.31948609479746
  H   3.46250971402436      3.21424263260468      0.04303532827321
  H   4.44789555329493     -6.07829885915679      0.92824152449746
  H   4.87380774758635     -5.93787502664777     -0.77932980857708
  H   2.67808853582485     -6.92863771984449     -1.41061096144912
  H   2.24373811665660     -7.06048236106482      0.28780139538267
