27
Coordinates from ORCA-job 13242optt
  Br  1.05632031609221     -0.06485983492030     -0.12836104544025
  C   2.95822637653383     -0.01234067480050     -0.00971089387762
  C   3.58959526028377      1.22374501444955     -0.10028964824341
  N   2.96012312289965      2.43757958925382     -0.31506606346766
  C   3.61940680760140      3.60063215419749      0.25672881118616
  C   5.06184147510599      3.64810004447834     -0.19596011371732
  N   5.73884998334183      4.67398136440199     -0.49677537060018
  N   5.67198339595195      2.40964959718855     -0.21111663005531
  C   4.98832592357704      1.21507007338090     -0.04784034928970
  C   5.64962057631269      0.00689142822953      0.14364193665492
  N   7.04422298854403     -0.04451293531456      0.25344868311380
  C   7.78881189518878     -1.19851915781682      0.11932229371354
  O   8.97877906464248     -1.20004676959454      0.31928073430244
  C   6.98747850911649     -2.40916085528235     -0.30464786914934
  C   5.63475342425229     -2.46265852215105      0.40435274452433
  C   4.90088842524589     -1.16702953320911      0.21465721494660
  N   3.57765226167475     -1.15930371044859      0.12503232978151
  H   1.95758431105585      2.41011764905285     -0.19634908371148
  H   3.60806598152390      3.58815904896038      1.35580615738262
  H   3.11472285832751      4.50168094608681     -0.08358503823035
  H   5.18076305982432      5.51945588203958     -0.42943032465237
  H   6.62610354243008      2.40163184030869     -0.54262933595200
  H   7.55254858100794      0.75611726443967      0.60272333787474
  H   7.59682369263381     -3.28765081907920     -0.10852251243627
  H   6.83526225306515     -2.33578754204935     -1.38588931212557
  H   5.78647745470590     -2.63746749307596      1.47457240170001
  H   5.02076845906044     -3.27847404872586      0.02760694576813
