23
Coordinates from ORCA-job 13246optt
  Br  1.05930342646755     -0.11304899041410     -0.12306110279483
  C   2.91027263865640      0.07951784255112      0.08524444945813
  C   3.53953833409193      1.26995247808048      0.27620915212033
  N   4.91343708446555      1.24068401259607      0.37341059113345
  C   5.71495654369397      2.41577819149324      0.70910637574123
  C   5.81500227832857      3.41373652140871     -0.42658283100790
  N   6.85675981574398      3.68517757743938     -1.09297533865011
  N   4.64186888272230      4.08066038275286     -0.68807710182365
  C   3.42003161723334      3.81346715421569     -0.09187278322229
  C   2.93017605936902      2.58934507790812      0.34798842648545
  N   1.69172596099739      2.85784342339489      0.84247120434046
  N   1.35147490373670      4.12682661471075      0.73412710771863
  C   2.38490750833023      4.73001979656688      0.17121472064527
  N   5.64395159584799      0.12585512247572      0.21707401117898
  N   5.10492419529999     -0.98256759241212      0.02974621744398
  C   3.68660394341347     -1.14582949211313     -0.01206616690715
  O   3.22270513759335     -2.24773048875584     -0.14091315777204
  H   6.70416802367482      2.03939018181477      0.94785082915560
  H   5.28336550433682      2.89499142281430      1.58957239568661
  H   7.65312610736639      3.13552099165599     -0.78708910429264
  H   4.69962391603448      4.81135439897748     -1.38143475221248
  H   1.04154131616445      2.19406015069907      1.23070678618748
  H   2.36253520643128      5.78799522213966     -0.03364992861252
