21
Coordinates from ORCA-job 13241optt
  Br  1.03307576797940     -0.11714183843482      0.02097562077800
  C   2.89510695478928     -0.00510715344689      0.01889803523077
  C   3.56282789527559      1.19628320462368      0.01815020856061
  N   2.87192290372148      2.39529763472984      0.01844423645075
  C   3.57940322390327      3.45799927866425      0.01786656173541
  C   5.06517019276512      3.51144493004099      0.01704002240992
  N   5.72894351184085      4.59681662363686      0.01686255103325
  N   5.73560675573739      2.28862894744373      0.01657172590883
  C   5.00371768264024      1.22464194686356      0.01709859570040
  C   5.64485422602262     -0.07323717457453      0.01665627956696
  C   4.91924532494421     -1.21865530893337      0.01722869487413
  N   3.55720036545817     -1.18167203321077      0.01833412470503
  C   5.61171365451614     -2.49685967989260      0.01664867563812
  O   5.01889700818075     -3.55001150950311      0.01694448987782
  N   7.02468257905412     -2.43123297811098      0.01577097778077
  N   7.64926826108919     -1.33253792712990      0.01537000146914
  N   6.99641234358626     -0.18316241495697      0.01574169750901
  H   3.05454819325459      4.41173711233883      0.01797335256868
  H   5.10213904566139      5.40001926151693      0.01731865092060
  H   3.07157282139888     -2.07215677410058      0.01874952855803
  H   7.55969128818101      0.65990585243587      0.01535596872377
