23
Coordinates from ORCA-job 13247optt
  Br  1.03378455860253     -0.01942268166044      0.07214743496443
  C   2.91628537207743     -0.00147066826258      0.06801596378749
  C   3.63117597183073     -1.20468325949624      0.06951314056121
  N   2.93346858210243     -2.41350901119463      0.07261423645505
  C   3.59907093275953     -3.49444954560243      0.07390693698752
  C   2.84425084556236     -4.73537200888948      0.07636659960416
  N   2.26246015761114     -5.72185213465326      0.07940662742711
  N   4.97732385805812     -3.61654569904618      0.07303066514490
  C   5.83244713791984     -2.42624646315202      0.07079117264657
  C   5.02721844943126     -1.15533314863585      0.06765511360348
  C   5.68592683771598      0.05867130616307      0.06349763404180
  C   4.96577672721566      1.25406226165539      0.06134637597715
  C   3.57092138015152      1.21590069814284      0.06388539925212
  C   5.65195486828109      2.50819893330063      0.05655128582184
  C   6.23557028681727      3.55526591086142      0.05098489261870
  C   5.63771689827970     -4.83577134836884      0.07535546940125
  O   6.83608871054842     -4.89979207775091      0.07550114264495
  H   6.48436879710512     -2.47619877000366     -0.80395367939283
  H   6.48342991885667     -2.47225620364292      0.94649241682548
  H   6.76866088043822      0.09073343513357      0.06185481172636
  H   3.00459721394732      2.13622248626387      0.06257888166249
  H   6.75514471325300      4.48394044597056      0.04657541168233
  H   4.97635690143454     -5.71009245713186      0.07688206655645
