26
Coordinates from ORCA-job 13253optt
  Br  0.50859649377517      0.19256263266458     -1.32386356744050
  C   1.90253973301367      0.78131039494512     -0.16733709896713
  C   2.91951615609011      1.56529104607248     -0.59779526444525
  N   2.97944640416338      2.20930611579758     -1.82354793072540
  C   1.92959376243426      3.19869786252850     -2.10151328888097
  C   1.57548377001627      3.98319874458600     -0.84007509014153
  N   2.32292811033603      4.85044184596844     -0.28968837573349
  N   0.37599295237635      3.61998811132095     -0.27582802537052
  C   0.08669063587560      3.89122396236609      1.11626588332876
  C   0.49076102146604      2.71330177147801      1.97777184957488
  N   -0.22732642722379      1.92271976802961      2.63067315454071
  O   1.86347262464584      2.58838467155391      1.97079973763933
  C   2.46900611895359      1.36895103985960      1.97684945851312
  S   4.21886456976791      1.48285536381004      2.05076332707691
  C   4.19625677501297      1.80368509679478      0.24685762129633
  O   5.15784023496157      2.27846167710425     -0.27681270278067
  C   2.08779098470201      0.33128592724606      1.19489343397637
  H   3.90938915836135      2.58472958002147     -1.96803340419146
  H   1.04905015629448      2.70727194058886     -2.51586817963316
  H   2.31621836191183      3.88134930737579     -2.85608969054289
  H   3.16222245473879      5.01625308806836     -0.83770730879108
  H   -0.07768942076281      2.81223903239513     -0.67466747468242
  H   0.66044928720646      4.77119863471225      1.40549589966762
  H   -0.97643459458248      4.08612849896681      1.25281561712735
  H   -1.20968680392451      2.16849538203058      2.54319285251039
  H   2.52302748038992     -0.64533149628528      1.36844856707468
