24
Coordinates from ORCA-job 13255optt
  Br  1.12067060271213     -0.36136332458818     -0.15338365255323
  C   2.99546624257996     -0.27091804037603     -0.01350042069295
  C   3.71715895843825     -1.36156140425268      0.46499734105242
  N   3.04994077553240     -2.54847626530723      0.85587180017100
  C   3.09885204579816     -3.55548275440806     -0.18814175735386
  C   4.48594833028368     -4.09091181157515     -0.53901249877616
  N   4.70791356991470     -4.94983457158575     -1.44060977461781
  N   5.54637211018734     -3.73986345545255      0.29578163839373
  C   5.82669869934285     -2.54450655020185      0.96843172627313
  N   6.66347177248667     -2.43773446591058      1.90913790125336
  C   5.11260441261997     -1.31380704190153      0.49727005974260
  C   5.78336503901406     -0.16187385229566      0.08948394692654
  Br  7.65802083411336     -0.05587343377184      0.02098809410866
  C   5.04103645179964      0.93949727566171     -0.34726690110538
  C   3.65104755418476      0.87947472450935     -0.40342988141554
  C   5.67543856325943      2.15643049501645     -0.76563073492904
  N   6.13242093391456      3.15095974054043     -1.10820176343040
  H   3.42544395085093     -2.90861925762104      1.72600380684704
  H   2.63910556271063     -3.14693881083026     -1.09002267364348
  H   2.49897143765112     -4.41289042864681      0.12233441464949
  H   3.84888413366643     -5.21275390645152     -1.91910088453790
  H   6.32241140117770     -4.38513811616771      0.22581498866982
  H   7.08118748470964     -3.33469985311885      2.15738880294721
  H   3.09556913305157      1.73688510873537     -0.75620357797923
