23
Coordinates from ORCA-job 13258optt
  Br  2.60041675668978     -0.95756384856736      1.56772154060416
  C   2.72878990894839      0.04552616287484      0.00051990026600
  C   2.54520135263808      1.37312776451023     -0.02490166010311
  N   2.31024096541254      2.24289726016250      1.02979850228982
  C   1.11270750266285      2.44987046941729      1.36225204894696
  C   0.72478962905433      3.77460897933852      1.95793331638485
  N   1.37493220757960      4.44592780508222      2.80070587337268
  N   -0.49095729029893      4.21160599881418      1.40527045734019
  C   -0.73535472864301      4.06126390618903      0.16811704640599
  N   0.15398384593512      3.70336486961842     -0.83348532490493
  C   1.45340902381338      4.25520046274584     -0.99224482048683
  C   2.52552749634989      3.54997038599793     -1.33048905380025
  C   2.63459800499570      2.06571357447310     -1.31712512461313
  N   2.89254038695386      1.46398211318491     -2.41467738441917
  O   3.08851919658392      0.11375970339525     -2.37785295325564
  C   3.03821041469854     -0.66496841405419     -1.24035958828319
  O   3.23937511881040     -1.83292213807660     -1.35383796254642
  H   0.29450461385848      1.80644911421226      1.02928530100434
  H   2.20823524036555      3.93155710582631      3.08679696122050
  H   -1.76194380394104      4.18688636796014     -0.17160316511556
  H   -0.27586673951549      3.40651897267612     -1.69793554979418
  H   1.52205292365641      5.32989569803323     -0.85990637870697
  H   3.44008797339164      4.08832768618578     -1.54498198180611
