24
Coordinates from ORCA-job 13260optt
  Br  1.78824995281161      0.90214337820207     -3.45499698056022
  C   2.94800215329143      0.79612713440629     -1.98037621258359
  C   3.68766211401445      1.89782035803589     -1.61482315151518
  N   2.94088646265246      3.08722576932906     -1.59940569344413
  C   3.09164428072401      3.85742937015890     -0.58925644726280
  C   1.85024028333919      3.89272385395674      0.28329636264028
  N   0.85480393373234      4.64215817731323      0.41955382969606
  N   2.06346207571033      2.67639269272932      1.00377392472426
  C   1.10809474010183      1.88100771321109      1.24375452499956
  N   1.29549763931966      0.58478406680225      1.69618512143335
  C   2.32385558074990     -0.34611284916116      1.44159447472397
  N   2.35725092432217     -1.39475138156971      2.14512963182413
  C   3.15878259731638     -0.02355713283762      0.24044320350081
  N   4.25381211206766      0.75776515459997      0.40557705433351
  C   4.67269656454123      1.70531849230533     -0.53574781281035
  O   5.63167215802141      2.40615642411186     -0.31004857461936
  C   2.66148249282526     -0.20833518491985     -1.01305052197038
  H   4.03538426198830      3.97347385873612     -0.04862588678802
  H   0.92399916408725      5.45821113976837     -0.18470290768399
  H   0.05950620105906      2.15960954601287      1.11499634447713
  H   0.53118800936538      0.17289816907762      2.21383344726753
  H   3.07835231362731     -2.03103135624011      1.81606841062519
  H   4.61493592528544      0.93005831724303      1.33579138177538
  H   1.82553805904590     -0.87051571127155     -1.18096352278314
