21
Coordinates from ORCA-job 13268optt
  Br  1.13408140035532     -1.83217159731833      0.13340508356160
  C   2.76010533256557     -0.92926747248892      0.01470101006893
  C   2.81861411735205      0.43596596827899     -0.02600784839649
  N   1.59788527208099      1.09807114751054     -0.02313918252753
  C   1.35594236537192      2.33495736121365     -0.03595895959858
  C   2.23105729017371      3.53109929888805     -0.03693561766391
  N   1.67450416441593      4.65613554900071     -0.02478898298884
  O   3.59905478561732      3.47121746301384     -0.04618829309813
  C   4.41990421257734      2.41309066322972     -0.08165644732115
  C   4.12246539191051      1.07825838854862     -0.07531827799155
  C   5.28008222938960      0.20918495502081     -0.10785746359716
  N   6.49486520424673      0.85539665000086     -0.15095458330010
  N   6.69583871277066      2.15070998458843     -0.15474298313627
  N   5.70209792321331      2.92294796697068     -0.11998898436177
  C   5.22034239457501     -1.14214382730291     -0.09694248222661
  C   3.95521778311023     -1.82519897263169     -0.03675002832532
  O   3.84715999837900     -3.03482095027487     -0.02997966600264
  H   0.31266725132872      2.64159281089980     -0.04182645308816
  H   2.35923595136754      5.41233507832561     -0.02294003143871
  H   7.34732010734814      0.31414750995637     -0.17805725614511
  H   6.11555811185036     -1.74950797542999     -0.12707255242248
