24
Coordinates from ORCA-job 13274optt
  Br  1.82617724028152     -0.41970681122732      1.37189255575212
  C   3.42944163855387      0.31680633025433      0.71633278428616
  C   3.57684331177838      1.64494950168810      0.59685122560218
  N   2.60438321768028      2.58072961677047      0.94971211179393
  C   1.87248152342553      3.02420439515108      0.02966197440996
  C   1.14402771531130      4.28328950974947      0.29960445781133
  N   0.01630923090864      4.62454028803070     -0.13267685675952
  O   1.79789784772980      5.11639089042289      1.14277578290126
  C   3.13832059336093      5.43536680379533      1.07097208666861
  C   3.25331534820045      6.82342301272114      1.62976725063874
  O   4.27047471738210      7.45621339843400      1.70278727717635
  C   4.28728295498601      4.85720654030310      0.65806284934752
  C   4.94788480462904      3.67582880442513      0.11181669384917
  C   4.77961548884831      2.32120979924050      0.11872959814212
  C   5.85481429246544      1.47120738027009     -0.35942364273104
  C   5.87161238030832      0.13499783399063     -0.30485525459447
  S   4.62044811552252     -0.87958463605001      0.32329314033660
  H   1.81138465034197      2.58800523979465     -0.97185321411149
  H   -0.38379923472659      3.88766200893807     -0.71054603000360
  H   2.29031745047018      7.22792164003672      1.98388763732194
  H   5.04340882724795      5.63027877763280      0.78882488974294
  H   5.91894428092359      3.96016045230419     -0.28043045121176
  H   6.72453856766822      1.96908125546803     -0.77149562821742
  H   6.72487503670215     -0.42818203214413     -0.65969123815163
