23
Coordinates from ORCA-job 13273optt
  Br  3.61046467907996     -0.21988263729896     -2.31145448120672
  C   3.13501490451533      0.23207234680809     -0.56068159268833
  C   2.46862826029244      1.37400893596821     -0.25398099838526
  N   2.15010168151119      2.33756596413182     -1.20897085745805
  C   0.96018471918469      2.75958368405622     -1.21407049771595
  C   0.63167105639787      4.04344104937768     -1.89479985080409
  N   1.17739541731662      4.52517383768210     -2.91032339933172
  O   -0.42076065005358      4.71344324089283     -1.33250075273641
  C   -0.73135346669562      4.64255475327489     -0.00719521370986
  C   0.00876326037025      4.29598314551872      1.04439237617258
  C   1.45714340535633      3.92188764152069      1.06444057152816
  O   2.31932982353889      4.66063676161708      0.65839275049219
  N   1.70257412074047      2.70528840733467      1.68538340333705
  C   2.20754115951008      1.64920432077859      1.16383137219966
  C   2.57007801887601      0.54026929525630      2.04093400645195
  N   3.16669740719690     -0.54021157494925      1.67788015062462
  N   3.47074172524884     -0.67412097464276      0.38784681667548
  H   0.15998332054684      2.28544819353321     -0.64157590015356
  H   1.91525540473405      3.89856979935700     -3.22912326833222
  H   -1.76526236583708      4.93052329030569      0.12877696201274
  H   -0.50689255438016      4.25449597978998      1.99501621782269
  H   2.33500226176328      0.63188714811285      3.09326871414062
  H   3.94069841078639     -1.52882260842567      0.13551347106442
