23
Coordinates from ORCA-job 13277optt
  Br  1.11185462540264      0.35716337715422     -0.24599534345255
  C   2.98557194533078      0.13677383457208     -0.13995817348100
  C   3.54165623464997     -1.11669441535526     -0.37785677505025
  N   2.77747615632788     -2.20418812602548     -0.83099790700685
  C   2.05226225361466     -3.01088494534930      0.14013065054762
  C   2.94754115236086     -3.97059954999258      0.90481130834286
  N   2.69887330102078     -5.08524451501799      1.40141585891455
  O   4.19686070300724     -3.39461903122203      1.09059311264550
  C   5.14133371642364     -3.58430943796272      0.12145825385325
  O   5.52203769131655     -4.64524282062852     -0.25868259725156
  N   5.62212217487194     -2.36919033074449     -0.32153355276132
  C   4.94226483761763     -1.16308790148655     -0.20020536791697
  N   5.67391949761439     -0.08510789551014      0.01558707027734
  C   5.01555303992636      1.05372102435540      0.16514825294061
  C   5.80291359441877      2.31590522842121      0.40315139025331
  O   6.99549774109314      2.36175164269616      0.37802523025685
  N   3.69756215146552      1.20730375685421      0.14674612279954
  H   3.28354129046665     -2.76979006564483     -1.50140373749349
  H   1.26005020739605     -3.56443219790540     -0.36294594549089
  H   1.57778940979384     -2.33652976401785      0.85623483991668
  H   1.73741273463786     -5.36456259298112      1.21208144741696
  H   6.56466281783935     -2.34789008706548     -0.68275519386525
  H   5.16824272340343      3.19675481285647      0.59895105560505
