27
Coordinates from ORCA-job 13286optt
  Br  9.60338509194131     -2.06638270749050     -0.40219364054358
  C   8.64199789647760     -1.70335726531787      1.15512193355531
  C   8.33267759158779     -2.60842472526024      2.08559798922166
  N   7.41853961377197     -2.28942852080795      3.09177104408959
  C   6.64081425960672     -1.08658953928856      2.79148933308239
  C   7.60687665605982     -0.01094075332354      2.38670292750958
  O   8.35592948002959     -0.37242149930297      1.29051853442059
  C   7.92246496214822      1.09324166819220      3.05272578374456
  C   9.27447694416323      1.73668957599765      2.90550230481952
  N   9.62145790575457      2.77574613333039      2.28691634274403
  N   10.13210466727145      0.93359531796581      3.68097707923756
  C   10.79338613020706      0.02594010240656      3.08922814901050
  C   11.11037930742185     -1.21398935096759      3.79020251189635
  C   11.01652939743816     -2.32632298870695      3.05364720653020
  C   10.66847270924684     -3.66729637858240      3.52770163451657
  C   9.64180869445302     -4.34530100102173      3.01462358933449
  O   8.77473243343588     -3.90426410397610      2.03771994067070
  H   7.82442585126743     -2.30035155864931      4.02320197619981
  H   6.06632418562967     -0.79225463518995      3.66492380278387
  H   5.96034810789177     -1.33015806549151      1.97311896599465
  H   7.31109681121593      1.38888767787158      3.89541714182295
  H   8.81667649576734      3.19524719881424      1.82511060255379
  H   10.90960141747408      0.01706201965990      1.99963007032004
  H   11.04755931558685     -1.21579889064019      4.87244355629074
  H   11.03859005544760     -2.21297589789211      1.97480424955997
  H   11.21101821227585     -4.13053088574195      4.34266312865755
  H   9.39332580642828     -5.35062092658690      3.32643384197659
