21
Coordinates from ORCA-job 13288optt
  Br  1.05300330553235      0.14614642891419      0.02845878739823
  C   2.89675641887810      0.04477245229352      0.14566324117106
  C   3.59128814455365     -1.09028899321052      0.14208576811064
  N   5.00594292676802     -1.04733334034982      0.21679252277122
  C   5.61728619548268      0.19737023883327      0.04631086440744
  C   4.86172104067602      1.28707803908770      0.05448065076863
  O   3.49149137158396      1.26964889533500      0.22691774300912
  C   5.43575756999537     -2.33867851927570      0.10067065261603
  N   4.48627630852590     -3.21887184278240      0.00983935166090
  C   3.25895557583636     -2.52732312862762      0.03284815589076
  N   2.08919878302965     -3.01123927322819     -0.00934895005586
  C   6.84643806496150     -2.71190748974160      0.10042193564435
  C   7.35308355288482     -3.87019172227350     -0.42384498485694
  C   8.74652601012658     -3.93838405217242     -0.19762289548878
  N   9.28050135794060     -2.93173279590481      0.45413420388278
  S   8.12531296036958     -1.84182149246803      0.82766441641928
  H   6.68229855004552      0.24385231611893     -0.11275690547470
  H   5.24543768137191      2.28497723446717     -0.07494871857692
  H   2.14718674065616     -4.02709587469730     -0.06981025594480
  H   6.75031310312864     -4.61172537157406     -0.92500293007391
  H   9.38822433765256     -4.74925170874377     -0.51695265327852
