26
Coordinates from ORCA-job 13284optt
  Br  1.17606596201739      0.17560139418362      0.09005701931168
  C   3.01697833070548      0.03025902051590     -0.05466183755433
  C   3.67338254768676     -1.12868257036072     -0.04725090220086
  N   5.08809621745538     -1.12348548938467     -0.14716764718348
  C   5.72615610878350      0.09487564597746     -0.30424213595113
  C   5.00890980685562      1.21286344705387     -0.31036222693527
  O   3.63049428727218      1.23198879717651     -0.16331279636756
  C   5.53939391119245     -2.41053403744595     -0.11932738049216
  C   7.00307634577530     -2.69046692851336     -0.15181029564665
  C   7.63255752592751     -2.42615533938370      1.20938012017768
  O   9.02543277953878     -2.59854482449445      1.07518322608504
  C   9.70094090814953     -2.43661778314146      2.29119414100102
  C   11.13874776496262     -2.60962086206338      2.06319185248527
  N   12.26502939765515     -2.73902620914879      1.90869466397308
  C   4.50220150601048     -3.28862633482935      0.00007945579149
  C   3.24364563477670     -2.55748582441765      0.05494035911109
  O   2.10433601513754     -2.96108712873789      0.16229373114399
  H   6.79810284816281      0.11099080683612     -0.42734881699154
  H   5.41926402036949      2.20014762389934     -0.43227691562187
  H   7.50257602761027     -2.06861810011452     -0.89860159292797
  H   7.16811267801784     -3.73053573386259     -0.42784464813321
  H   7.22730969252618     -3.12525934395738      1.95035870628704
  H   7.41053342882741     -1.40729574880952      1.55367405996600
  H   9.37328943438869     -3.17592620177825      3.03139279485348
  H   9.53525600893022     -1.43780216434354      2.71280430712142
  H   4.59111081126462     -4.36095611085561      0.04596275869775
