24
Coordinates from ORCA-job 13287optt
  Br  1.11438122015362      0.15574421805244     -0.08391356747401
  C   2.95881999087683      0.03602125257210      0.08397085991960
  C   3.63270177725940     -1.10519732484658      0.16345804332451
  N   5.04964447619906     -1.06078265392243      0.27525575375756
  C   5.65002691875684      0.12284514766876     -0.16014572667712
  C   4.91999140060848      1.22826045242884     -0.23141075744733
  O   3.57430359826804      1.25354377061065      0.09671281848226
  C   5.51631762301105     -2.35909977227121      0.14860857964429
  N   6.86991927460624     -2.52520896481154      0.15515458867871
  C   7.55292781017100     -3.73236063547690      0.05409019999371
  N   6.94368941610168     -4.87844287851330     -0.17201459465444
  N   7.93949704728738     -5.77623197131067     -0.21786820079163
  C   9.15191171191012     -5.23061785245215     -0.02460464559677
  C   8.95421330892154     -3.88478884351633      0.15761811159903
  C   4.49822055342685     -3.26232317625994      0.04971420184016
  C   3.23739576602209     -2.54699404845280      0.06320776125790
  O   2.10189694939230     -2.97109043569506      0.02550954871053
  H   6.68927343260204      0.11514101493571     -0.45079168673299
  H   5.28936312833888      2.18694815825998     -0.55312476610257
  H   7.41869938378702     -1.74968982088513      0.48696964089130
  H   7.71347831775570     -6.74173724280279     -0.37957033309183
  H   10.05050208185256     -5.82392600941541     -0.03044948498893
  H   9.69901017304382     -3.12820150230296      0.33309958326325
  H   4.60681463964739     -4.32881088159323      0.00552407219483
