24
Coordinates from ORCA-job 13297optt
  Br  4.37011081674995     -3.21973709156619      0.67132907165122
  C   4.84325059632338     -1.45344818145857      0.28062293967025
  C   5.69484499931227     -0.72435940281812      1.00208750762656
  N   6.05152115106338      0.51500043738081      0.44808596429886
  C   6.18297025177256      0.47871366183222     -0.95269217039221
  C   5.31836080869767     -0.28136062440265     -1.61273448218529
  O   4.32681281512679     -0.93354348905121     -0.87539590296477
  C   7.35824165734754      1.12850907678476     -1.57475376628558
  N   7.27104704200651      1.65200392472816     -2.72345083875621
  N   8.48198507903593      1.16860599984482     -0.73719482874491
  C   8.87905886336567      0.16007164498491      0.16142428933807
  N   9.57701937494018      0.34815280349911      1.19977507821533
  N   8.57357972937712     -1.14463333004726     -0.26250594759147
  C   8.07162134555392     -2.00826212263865      0.50690926352419
  C   7.59771086555336     -1.86691074230396      1.95162427712425
  O   8.18165862910818     -2.42211405036599      2.84104857458880
  N   6.42493611685091     -1.16898842489989      2.11604316765593
  H   6.73142089449406      1.04263642580015      0.97127965477424
  H   5.32624870984015     -0.48016789033189     -2.67176992319772
  H   8.17064873442942      2.00089721043456     -3.05151992593045
  H   9.17355492089273      1.87323480881576     -0.94250667732607
  H   9.77970351329993      1.33541949749285      1.34514976508555
  H   7.98395995682408     -3.02799280958350      0.13158310137594
  H   6.00273312803377     -1.20972733213020      3.03356180844546
