25
Coordinates from ORCA-job 13305optt
  Br  2.32097120143045     -4.05816399274858     -0.87605769789913
  C   3.49597392305402     -2.65444797705225     -0.52138020369806
  C   3.84018116285693     -2.18229121768777      0.68593229471734
  N   4.39398775066070     -0.88852850382391      0.75045149697015
  C   4.97906898962219     -0.43442310660945     -0.28323254358370
  C   5.11302793973580     -1.32844263536680     -1.44297032341151
  O   3.97195675543143     -2.08007469855201     -1.64521263456356
  C   6.24417737454905     -1.60715071337161     -2.08547852627731
  S   6.46989031049914     -3.06188772982786     -3.04118710404308
  C   6.00115790266223     -4.31835353502371     -1.90555021723211
  C   5.88326440654979     -4.26069298884896     -0.58035438640340
  C   5.32335671108601     -5.40577195514996      0.17392015352320
  N   5.38457484729374     -6.56596240503140     -0.35133848808792
  C   4.69534864913424     -5.24570064110111      1.51991411633723
  C   4.02271040031849     -4.29992161989097      2.19039682116331
  C   3.67772179860638     -2.87013712091215      1.98653483969309
  N   3.34521561683606     -2.23904918868570      3.03980740185050
  H   5.40605555098025      0.56306193153352     -0.27586656573742
  H   7.09183180846724     -0.94820864392285     -1.94870608854288
  H   5.76062790884660     -5.24518161258618     -2.41491208187972
  H   6.12434691928786     -3.36556225026576     -0.02392260686460
  H   4.95197237345556     -7.26769587809535      0.24810082803987
  H   4.75864745518469     -6.18455214245191      2.06433386479420
  H   3.67863939564687     -4.60101507471043      3.17416251848588
  H   3.19229284780424     -1.25184629981681      2.82661513264962
