25
Coordinates from ORCA-job 13309optt
  Br  2.01148096182699     -3.28746619117716     -0.84504410222184
  C   3.56386821491274     -2.70835838440770      0.02835292195584
  C   4.15031262763536     -3.31732137922018      1.07345426826532
  N   5.12874666340266     -2.59239883273952      1.77371119350719
  C   5.75990279101901     -1.65412271269986      1.17534073674263
  C   5.49077686129516     -1.55996930993536     -0.28197246030547
  O   4.11460704793137     -1.58339860717141     -0.50423891916830
  N   6.31673379265006     -1.95510799324473     -1.15107198453111
  C   5.75266669614678     -2.85908718425373     -2.08150166415228
  C   6.16843002427030     -4.11571305606391     -1.83425792312322
  C   5.11370978619888     -5.04998296420049     -1.43852204208334
  C   5.21291282627280     -5.49182867686249     -0.17720922510206
  C   4.10908119985389     -5.60267887225791      0.82715243213314
  N   3.55887769584962     -6.81701871348618      1.11512888668684
  C   3.85957578587880     -8.01580774844700      0.50116171916117
  N   3.24826222509207     -9.06980982490732      0.83118890464581
  N   3.74681305744383     -4.58271529269133      1.51804398081339
  H   6.50960453223190     -1.06965847429049      1.69480898892855
  H   4.80047534421913     -2.63364946470313     -2.54912871603030
  H   7.10835236227194     -4.21188353767426     -1.30050667970012
  H   4.16193579891231     -5.03358554121482     -1.95935516441324
  H   6.17442899858512     -5.38484131062484      0.31960217320197
  H   2.84312271426060     -6.83233024900758      1.83156525679444
  H   4.63718770044987     -7.92837512257640     -0.25753695289456
  H   3.57913429138875     -9.86389055614213      0.29283437088954
