25
Coordinates from ORCA-job 13307optt
  Br  1.06614011531365     -0.07186110419666     -0.32558911635377
  C   2.91244733193837     -0.14762218843791     -0.18858851928585
  C   3.59673929267917     -1.25139687834821      0.10183177566041
  N   4.99124811574647     -1.17782459617646      0.17171983272137
  C   5.64599952029902      0.02974290046866     -0.01578792379760
  C   4.91722146867007      1.11497769874540     -0.30541762156370
  O   3.51535874481382      1.04131098196802     -0.41653137875411
  N   5.47942694566745      2.33935956933769     -0.47392927719597
  C   4.85573369913579      3.39404582022414     -0.79900302902912
  C   3.40724035978283      3.68708255225066     -1.13967035326853
  C   3.48350180487546      5.06808825787119     -1.78818543912552
  C   4.72810553191460      5.65408826068865     -1.13622762045140
  O   5.57294859554315      4.52811926467927     -0.87448528375966
  N   5.50874015947962     -2.34967804198726      0.49125579728188
  N   4.60299863808345     -3.22936132521385      0.63804880581683
  C   3.31906822486635     -2.65293703497445      0.41873330337540
  N   2.18937743576691     -3.22080907459096      0.48735472673674
  H   6.71758829282540      0.06125912161058      0.08241872396541
  H   2.82870886882204      3.69903388679491     -0.21310505752328
  H   2.98151405773814      2.92019917519818     -1.77776943107262
  H   2.59741415303297      5.67385757571763     -1.61401640052225
  H   3.63209782019401      4.97216566749676     -2.86354862493137
  H   4.50255242984220      6.14246920271398     -0.18554942486403
  H   5.28552577859467      6.34012975167946     -1.76874453734719
  H   2.31830261437428     -4.20243944351946      0.73278607328796
