20
Coordinates from ORCA-job 13318optt
  Br  6.04897549169304     -2.89436353752566     -1.28720590955621
  C   6.02263274735206     -1.09560778372045     -1.78466352169834
  C   5.87299402472640     -0.55248245926826     -3.00469584802759
  N   5.81501391874320      0.86212781981670     -3.04288985453011
  C   6.71773570845874      1.46514928049224     -2.19794788480321
  C   6.99520933820138      0.81687441091555     -1.06253898236085
  O   6.11240361286080     -0.24561695899781     -0.73571115599150
  S   8.54681567328208      0.83504078066190     -0.29073794600979
  C   9.49825853779268     -0.20924034453482     -1.40405390708659
  O   10.58342000363023     -0.57830840357610     -1.08314500295294
  C   8.97201078584390     -0.57547382246115     -2.82821535932074
  O   8.79746445931764      0.27481702521184     -3.66332460000237
  N   9.05777562242393     -1.92624427377222     -3.07794561938587
  C   8.37486400521360     -2.70973045393219     -3.78379635633090
  S   6.84912946297281     -2.67489656736538     -4.66794234774219
  C   5.91573998131010     -1.16191288475914     -4.34040483848575
  O   5.35283325234246     -0.65989120859798     -5.27079552138419
  H   5.67700750065986      1.25109514315780     -3.96437651248713
  H   7.27097453731658      2.32841419498458     -2.53672967008898
  H   8.79974133585841     -3.69674995672944     -3.97887916175471
