23
Coordinates from ORCA-job 13314optt
  Br  7.45654031875410      1.65363465065257     -0.25558014488956
  C   6.36604177559201      2.13161283729690      1.18058324093209
  C   6.83908754631846      2.64054271495867      2.48165155759674
  N   6.28277870853546      1.28663926516738      2.35648557949550
  C   5.48890959620401      2.37248144238168      3.00542980164304
  C   4.56898394336680      2.98928199693946      2.01211224214911
  O   5.10284112084503      2.65753667765289      0.80582125229434
  N   3.61520896129872      3.79212769676154      2.15301687845022
  C   3.38669714330283      4.22273079305651      3.48146105762168
  N   2.32622812738414      4.08722784356449      4.15139380873594
  N   4.50823681718991      4.84252466893514      4.04660991672103
  C   5.40621707315724      5.59602244550019      3.24876366590720
  C   6.73129764734158      5.46942297758054      3.28181291055722
  C   7.49835436641395      4.44262336538814      4.03925462053727
  N   7.73059720145839      4.37409058933780      5.27581001398384
  C   8.00230780591889      3.29275307468586      3.16013756952170
  O   9.14618283479876      2.99994712163809      2.99654251518893
  H   5.28040192092674      2.27770607123984      4.05879365903949
  H   1.63955558314154      3.55232881544916      3.62757985263614
  H   4.32977263980847      5.18280487532996      4.98212654063760
  H   4.96393792473205      6.30231280310423      2.55166644692203
  H   7.31545413063145      6.09980468843520      2.61917891790969
  H   7.32836681287939      5.17384258494372      5.76834809640873
