22
Coordinates from ORCA-job 13311optt
  Br  3.76424748365965      4.07306910740676      2.60827768197840
  C   4.74580576175457      3.13770229849743      1.33481316543637
  C   6.02793678013916      2.80909690465042      1.44248988274934
  N   6.66280205146848      2.13962138309770      0.37062514998331
  C   6.11235269574225      2.55878124909192     -0.89291780267159
  C   4.80690051833786      2.83015172477292     -0.95068911718553
  O   4.05342974922206      2.86152600227264      0.18251531204894
  N   6.89914858651618      2.73909177584843     -2.01663465252429
  C   8.13568008326535      3.01569473139724     -1.99211385479789
  C   9.01751547644668      3.26473789131845     -0.80811966216543
  N   10.25155345254213      2.99860076792711     -0.76696348688531
  C   8.38832669334148      3.91702827028110      0.40136622591012
  O   7.55342045367165      4.77243184178834      0.29967452519612
  N   8.84956768328064      3.41241882335756      1.60996133567774
  C   8.08525168845416      3.10775001248493      2.71953201572972
  O   8.55942963571979      2.82320323409579      3.77441655953159
  O   6.73054325196928      3.11217230588374      2.57396588310939
  H   6.65406375164248      1.12845335817103      0.47505044065743
  H   10.58744378773588      2.59569323516770     -1.64413758170866
  H   9.78163067121621      3.01833326614514      1.61616083468661
  H   8.64795684707553      3.08647167524110     -2.95193205590066
  H   4.27599289679845      3.10897014110251     -1.84834079885572
