22
Coordinates from ORCA-job 13316optt
  Br  5.68064833963976      0.90712537510766      3.07026146773423
  C   5.71716546677181      1.52847869066059      1.32489969204724
  C   5.73041437651704      2.81656698802996      0.91708195157882
  N   5.61400555212842      3.01117062543864     -0.50765285341773
  C   6.57449752456169      2.18984896778470     -1.26900484537333
  C   7.06815684542192      1.14610015855287     -0.31041913941180
  O   5.96898525429920      0.57171561923456      0.37943322432645
  N   8.21516389353538      0.90289815816190      0.11770394683162
  C   9.36641194606214      1.64440122880838     -0.16856336581734
  O   10.31545182123846      1.26807811873630     -0.78097747129647
  C   9.26228791478268      3.05784147846677      0.45299586032133
  O   8.85505177443218      3.96612481640217     -0.20816954875876
  O   9.55449413222273      3.15303209371287      1.75900439503084
  C   8.70364772438548      4.03836182058296      2.50864005814345
  N   9.12627489665216      4.97396669474420      3.20580143979477
  N   7.44229162831337      3.49131201955894      2.41449061706870
  C   6.59243587192239      3.84191380726739      1.54397097671471
  H   4.66854711245216      2.81100929648089     -0.80565895744805
  H   7.40456601787741      2.78665391030193     -1.64350685856250
  H   6.07236776809512      1.70428161117582     -2.10710838975372
  H   10.13478203981682      5.07833702716009      3.12794129268523
  H   6.65135209887155      4.78078149363038      0.99083650756231
