28
Coordinates from ORCA-job 13319optt
  Br  0.89265142520743     -0.31210874146279     -0.27474239215725
  C   2.75594125801667     -0.27126534729469     -0.08946576373936
  C   3.49525462132197     -1.38661607311860      0.04063797193268
  N   4.86365498620286     -1.27066087751174      0.18415913931877
  C   5.56953683882492     -2.53645454022239      0.27783248781535
  C   4.45832816457060     -3.55771125334320      0.06754500492016
  O   4.63940312280162     -4.72693261685217     -0.09437184553478
  C   3.09164746162012     -2.84158010620488      0.09980614816584
  C   2.40088218749944     -3.15468104899516      1.44273363229828
  C   1.78951327392567     -4.55163044003507      1.43447911168176
  C   0.88658117887440     -4.68843258438783      0.21287327459374
  C   1.69256810449657     -4.42997217557338     -1.04506251784967
  O   2.31466890152830     -3.14316312099817     -1.02463800552340
  C   5.43754574880276     -0.04230867495010      0.17796089453472
  N   4.80201192195447      1.06066540993200      0.06104304878650
  C   3.40059867078868      1.06167803774210     -0.07403147594831
  O   2.77939125682242      2.08863817914515     -0.16381409734507
  H   6.03031624254111     -2.67932687886482      1.25798735755750
  H   6.33126047496531     -2.64394903195684     -0.49483738720166
  H   1.61786638055125     -2.40809053790173      1.58873975096326
  H   3.12530777943445     -3.03246120592781      2.25300594439510
  H   1.22874700595449     -4.70440869672578      2.35697604567405
  H   2.57520502139529     -5.31012629353672      1.39740501924883
  H   0.06784765592772     -3.96633183698781      0.27432215303018
  H   0.45052603393587     -5.68697179777729      0.15674489083624
  H   1.06074905234522     -4.41033174139615     -1.93123074142420
  H   2.45460378749350     -5.20284984986587     -1.17530886949699
  H   6.52039144219681     -0.03861615492822      0.28025122046773
