23
Coordinates from ORCA-job 13328optt
  Br  1.02807125538682     -0.03903465242762      0.05975496419207
  C   2.89522749987254     -0.16097974226144      0.05029067574434
  C   3.56142101935177     -1.33030682018558      0.09286437591491
  N   3.04806615288451     -2.62463527154286      0.19289255797048
  C   4.12245834160408     -3.56997107573981     -0.07180303842693
  C   5.40265088981630     -2.74720035101362      0.03041057900466
  O   6.50527773139423     -3.21861732907006      0.07691798166102
  C   4.99084959452066     -1.31061044598689      0.06031252473205
  C   5.73145442566988     -0.15881478401753     -0.00293613247518
  C   7.18097402954429     -0.05848820912807     -0.04082044741127
  C   8.13949536229322     -0.93383315355244      0.38470148472496
  O   9.34680176697229     -0.43278631620806      0.18765443477134
  N   9.24118174767879      0.81295835281951     -0.39629701504467
  C   7.97306130938432      1.03984546169350     -0.52025685960275
  C   4.98845512248077      1.12095482237212     -0.05724856698130
  O   5.49156892246569      2.22724988409776     -0.12965965718823
  N   3.61065814316829      1.00284922232252     -0.02100477864304
  H   2.17083410185894     -2.78308040263404     -0.28051671559464
  H   4.07755404915885     -3.99904458486421     -1.07815376086059
  H   4.15217382452047     -4.38507928365275      0.65060657680771
  H   8.09041552515565     -1.90847587965194      0.83363209680298
  H   7.63120176120602      1.96819533154746     -0.94269699872424
  H   3.11914742361154      1.88590522708406     -0.05764428137366
