24
Coordinates from ORCA-job 13324optt
  Br  1.13470303084414      0.32115808023742      0.00504108252391
  C   3.01013802450300      0.18079998490347     -0.10308941669652
  C   3.78079918120689      1.34515780980186     -0.14111267463950
  N   3.32130717494362      2.64148540272431     -0.22978049489817
  C   4.43832704068975      3.55622404946108     -0.06703896656398
  C   5.68144412625632      2.66083939556124     -0.10708438259475
  O   6.81271602597740      3.06138772673051     -0.13000700279437
  C   5.17732206499737      1.27244404242264     -0.11712784211503
  C   5.84397879834935      0.04691270230371     -0.09612546655899
  Br  7.71096575536482     -0.09314691997221     -0.04304308897711
  C   5.06482924608526     -1.09005181100212     -0.09400052361969
  C   3.66811696874496     -1.02780302949580     -0.10286705695516
  C   3.15346287152591     -2.45030970042355     -0.03527878887750
  C   4.45433804539478     -3.23421503447661     -0.34781954933399
  O   5.54026315700899     -2.36001545620115     -0.03374526216467
  C   2.08533460305500     -2.78690036869796     -0.96808466841376
  C   1.24252517868113     -3.10224888220671     -1.75654313809815
  H   2.42872832129820      2.85575009765571      0.18704680531413
  H   4.41740727343220      4.07733613577755      0.89350757829984
  H   4.49230962606272      4.29608512347877     -0.86556274314620
  H   2.81453609419433     -2.65353685346367      0.98602821659117
  H   4.49009012870043     -3.47533121515703     -1.41186983124905
  H   4.56015987567910     -4.14011292732344      0.24207306310485
  H   0.48419738700429     -3.36890835263803     -2.45351584813730
