22
Coordinates from ORCA-job 13323optt
  Br  1.09125780848183      0.02132494143187     -0.01508876857041
  C   2.99061154195293      0.06773583760486     -0.01508191588007
  C   3.62039588611482      1.31551105114487     -0.02211356482093
  N   2.96148249571806      2.52650300448877      0.00290511573688
  C   3.73548083889977      3.68063353533334     -0.41056946137767
  C   5.07301063873855      3.61551783305421      0.29843694850741
  O   5.76302040887141      2.41364680225959     -0.03850556197577
  C   5.02054008290001      1.29213640590256     -0.02481260665909
  C   5.68435129807508      0.06674540154883     -0.03097843041082
  O   7.04469891931796      0.13775783965856     -0.03798894942864
  C   7.90792086456412     -0.90141730706878     -0.04399250306821
  O   9.07314439602664     -0.69609733682178     -0.04753277769816
  C   7.37745750637547     -2.35446077029508     -0.04549384304878
  O   8.16901063343002     -3.24502044261281     -0.05416406545999
  S   5.65374597524751     -2.69905047064265     -0.03236017187169
  C   4.93578135653352     -1.09590958471178     -0.02650905332305
  N   3.61043496741939     -1.08295037022588     -0.01597129026973
  H   1.99109285840165      2.49337762719294     -0.27114862538004
  H   3.20996642002201      4.58901326016146     -0.11921319786232
  H   3.90286207239347      3.70365109599332     -1.49354917967411
  H   4.92803122959656      3.64984155609505      1.38043271281330
  H   5.72870180091917      4.42651009050853     -0.00770081027812
