19
Coordinates from ORCA-job 13321optt
  Br  1.20779368501876      0.05678636233560     -0.31767002698752
  C   3.05197732690710      0.15695231092564     -0.14138661488578
  C   3.77070107881378      1.26367739619567      0.01844896188987
  N   3.29515084339373      2.57589511310512      0.11296407566168
  C   4.31354451741929      3.33645286080299      0.26964652928657
  C   5.63105689592587      2.60896201191745      0.32314368549319
  O   6.69360949184303      3.09542436649035      0.61542162703699
  C   5.22710336789326      1.19836662467155      0.07654841674678
  C   5.85560415825555     -0.00389467089128      0.00393445795095
  C   7.28498965052652     -0.25328289664175     -0.12726503876013
  Br  8.39402221288970      1.08775842704643     -0.85830890628394
  C   7.86770105508557     -1.43263681944699      0.13647422022124
  S   7.06969785628051     -2.88509755195647      0.58151252144507
  C   5.42388165270489     -2.43510080826802      0.31461515341111
  Br  4.22744002400851     -3.87129363347298      0.45849541271988
  C   4.99623219396430     -1.18798206580331      0.03426461502392
  O   3.65049651922981     -1.05879447201959     -0.20551827988410
  H   4.22836546449430      4.40993547238649      0.38460894055994
  H   8.93863200534548     -1.55012802737689      0.03707024935429
