26
Coordinates from ORCA-job 13332optt
  Br  1.12473788222386     -0.00517932867557      0.58339447843475
  C   3.01805049905612     -0.06360225568486      0.35006909694257
  C   3.62927801696018     -1.31772076108175      0.31258079432831
  N   2.96690439969944     -2.52106881914203      0.45655204426977
  C   3.65827742001551     -3.67636466061610     -0.07191103826670
  C   5.08439497262114     -3.64690605244839      0.47199452824144
  O   5.74639322648799     -2.44517356077174      0.07706442706800
  C   5.02027897874726     -1.30103510650101      0.14223486954016
  C   5.68898251298326     -0.09506747888622      0.01746434124455
  C   4.95472875029278      1.08062608820833      0.06311700505915
  C   5.60304436165093      2.42589630074633     -0.10235825758843
  O   5.76794156154570      2.75179826406334     -1.49699054651772
  C   6.90358858983398      2.36259960010466     -2.06901354824010
  O   7.79453523832515      1.76987327683879     -1.53330522603398
  N   3.63145497701530      1.08352757103262      0.23511539439167
  C   5.86369003756200     -4.77628287388686     -0.02589612131005
  C   6.45872298610813     -5.72432835365990     -0.44591725861431
  H   1.96823972904426     -2.48051929824930      0.31806166114192
  H   3.70725548576476     -3.68458371864698     -1.16675974859497
  H   3.16608260471642     -4.58638250173104      0.26616116942092
  H   5.04440224562313     -3.67791780296621      1.56522333973259
  H   6.76126986307225     -0.08454226266664     -0.12223322015414
  H   6.57662595860598      2.46342665925129      0.38334841042088
  H   4.94149516039566      3.19057093711206      0.29312652742066
  H   6.90950410303014      2.67308551133098     -3.12045002311175
  H   7.00112043861858     -6.56072937307376     -0.81867309922521
