24
Coordinates from ORCA-job 13336optt
  Br  1.08268960737792     -0.12103243502080      0.04718352715550
  C   2.96430538089915     -0.11542237691469      0.04651757600694
  C   3.60939770763582     -1.33603418835710     -0.13618902602398
  N   3.03258000417086     -2.55252892551054     -0.36686606148742
  C   4.04341519166050     -3.59265196973476     -0.34687776022027
  C   5.36933227477673     -2.82659689286333     -0.29168585297799
  O   6.45383964507348     -3.33814839309446     -0.38306224910445
  C   5.00555779337232     -1.40126667489754     -0.11732761688610
  C   5.79167731571837     -0.26616890111972      0.05487797425219
  C   7.29392814552328     -0.38236955257359      0.06726313060951
  O   7.76892633447730     -0.13024803984444      1.38576953297803
  C   8.86319537191023      0.65545914218216      1.51232473228868
  N   9.42542869096515      0.91972986686535      2.59884196599052
  C   5.14039729092716      0.95256981137848      0.21940542469305
  Br  6.17753558081458      2.51791621368632      0.43671024550870
  C   3.73463434652299      1.02916932355167      0.22211579277770
  Br  2.87131193649471      2.67857639052486      0.46158473750665
  H   2.08387411189572     -2.72244007362738     -0.07524993392753
  H   4.01660437222653     -4.22236860785423     -1.23630239544419
  H   3.97344542680704     -4.22938115790250      0.53884433411549
  H   7.71863055100102      0.34231965532495     -0.63228654821009
  H   7.58844397458703     -1.38636110041054     -0.22791320781202
  H   9.23792518041388      1.06380119653974      0.57304837560252
  H   8.95392376474816      0.46047768967210      3.37827330260855
