27
Coordinates from ORCA-job 13339optt
  Br  0.86558334117897     -0.23080218004868     -0.19044480384535
  C   2.75504112455042     -0.20691072544105     -0.08838909218251
  C   3.43247911193019     -1.37117140335084      0.02770544380452
  N   2.80347136447976     -2.60650309787128      0.13932777896924
  C   3.57411733085125     -3.78009048405092     -0.21402013551472
  C   4.88771788345064     -3.70343005903517      0.52789264272575
  O   5.57005190274448     -2.50343299105518      0.15238887497412
  C   4.88871452543537     -1.34035507162300      0.08721881270150
  C   5.65081801545665     -0.22152797546336      0.04225949904985
  C   5.18306029995830      1.13251920522451     -0.06684605026882
  O   5.87841062682405      2.11886996307765     -0.09762556379059
  S   3.40918350033436      1.38599084828140     -0.15387784770872
  C   5.81434143353277     -4.84374220251198      0.21376241003747
  C   7.10825454568761     -4.98723931870115      1.03459322521856
  N   6.87644989402325     -6.44561726037791      1.06832298602317
  C   5.44989618177139     -6.23719264201909      0.76142005669969
  H   1.84197422384990     -2.60537867558223     -0.16565173873533
  H   3.77542098213239     -3.85298326256429     -1.29076965059290
  H   3.02630979696595     -4.66927564024048      0.09894414236169
  H   4.68770169521732     -3.65953360041379      1.60503191954486
  H   6.72549796580929     -0.33852073817180      0.09294646045377
  H   6.02246661984454     -4.87488597621255     -0.85616397397288
  H   7.01258292223907     -4.49760814035390      2.01064871080215
  H   8.04251054486760     -4.68073278495620      0.56724482784280
  H   7.07866261843429     -6.90761033881879      1.94556329168109
  H   4.81005589089666     -6.15902686519506      1.64959153762976
  H   5.01822565753346     -6.96080858252482      0.06992623609186
