25
Coordinates from ORCA-job 13340optt
  Br  0.92989668740410     -0.79618565805876     -0.02166795714297
  C   2.70178407566013     -0.16409735471216      0.03696935662406
  C   3.73940625634108     -1.00080484077182     -0.08694098914348
  N   3.69356803083514     -2.38753820032951     -0.19667116902376
  C   5.00343108727274     -2.93771345760917     -0.47929295362996
  C   5.95866652089075     -1.76664416218409     -0.28776529911784
  O   7.15907422211052     -1.86263753994280     -0.32451815142563
  C   5.12043040177673     -0.55813975813629     -0.06342796429019
  C   5.53916984188730      0.69832288396386      0.24602765214386
  N   6.85462527877879      1.06197560487106      0.40125616349848
  C   7.72197800071343      0.77038331501950     -0.48282649740299
  N   9.04065106828625      0.99975067620518     -0.27851605150367
  C   10.02846172880386      0.72951447720269     -1.21796077735913
  N   11.26758549048702      0.91144109893325     -1.09473781685969
  C   4.57814952992243      1.79650063921694      0.55838371931671
  N   4.91171615068844      2.95436783331840      0.94493579483565
  S   2.85044141539863      1.55056820139871      0.28891681650273
  H   2.88244631019223     -2.79056111026064     -0.63817281130712
  H   5.11300751585615     -3.29591164221973     -1.50801837383111
  H   5.27607301213337     -3.74967538620152      0.19685246574666
  H   7.47397821104666      0.35626290223880     -1.45951479991412
  H   9.30510426718178      1.35701832224817      0.63056601622451
  H   9.62975392941263      0.31779071310429     -2.14367769396361
  H   11.52264232774432      1.29817260691183     -0.18561910541315
  H   5.92695863917544      3.01883983579382      1.01542042643578
