24
Coordinates from ORCA-job 13341optt
  Br  0.96819965686407     -0.15989605412072     -0.04678529230856
  C   2.84474377533765     -0.05193013462860     -0.02764832554589
  C   3.56219463544842      1.14777012096407     -0.00003051077551
  N   3.17214828410571      2.49118339659523      0.02273034233527
  C   4.33901679691698      3.37534848691366      0.04355786430950
  C   5.53026209640252      2.43915739818551      0.04155795347525
  O   6.68215568578132      2.75825184040107      0.06315878037390
  C   4.96709826147753      1.05720112457843      0.00912843962848
  N   5.69419499758843     -0.04390969699404     -0.00805870637716
  C   4.99870206691771     -1.16848143995488     -0.03496221668246
  C   3.60244045464314     -1.21623813995696     -0.04402785179463
  C   3.17580972545397     -2.65053546982530     -0.07229273379064
  O   2.05400274225858     -3.07211222478697     -0.08306435293294
  C   4.43951082770510     -3.50425810318746     -0.08358589596647
  C   5.62691648844672     -2.53592454601600     -0.06025533004237
  C   1.93204622875517      3.09011521884154      0.02794269845568
  O   1.82296120933799      4.28999964866728      0.04539720234957
  H   4.33308998061259      4.00649510620400      0.93280679499595
  H   4.34732989000901      4.02746851584076     -0.83063602758980
  H   4.41424700605513     -4.13516878412368     -0.97218722160901
  H   4.40743257918078     -4.16821761753417      0.78036386553819
  H   6.26768134429181     -2.63047368596570     -0.93697436628111
  H   6.26262317095471     -2.66662109124769      0.81539180397347
  H   1.08319209545492      2.40677613115060      0.01647308626129
