21
Coordinates from ORCA-job 13342optt
  Br  0.95175842435428      0.28484108535218     -0.19780999666490
  C   2.81191481918343      0.11721982944960     -0.11624593615492
  C   3.48998795888324     -0.67763540864274      0.73909409534931
  N   4.88986980615457     -0.76062498981592      0.75950235508878
  C   5.56225250088926     -1.29012584276679      1.87302758740639
  C   4.87646746385574     -1.77469818382860      2.89271852802897
  O   3.51526064125486     -1.84791276212544      2.88528753331250
  C   2.83303116596359     -1.60124225520348      1.71918245146286
  N   1.71631317275933     -2.12127118302422      1.50827117699111
  C   5.58338601060632     -0.13198230860549     -0.22396826690650
  C   5.15984562844650      0.70029605033103     -1.19953696745388
  N   6.23840371467086      1.04270569261255     -1.99687354257028
  C   7.22407883870773      0.42691592008633     -1.46887633994351
  O   6.90578084577964     -0.32490596005650     -0.36803580578438
  S   3.52717753425458      1.26778402800324     -1.29258749950951
  O   2.99189984268135      1.01178861652943     -2.59179018237535
  O   3.42035572424714      2.58276197337317     -0.73921022336689
  H   6.63763880381047     -1.24863164420148      1.85175247322357
  H   5.31956369232965     -2.15550658843060      3.79768164023013
  H   1.44607851753664     -2.72394815335331      2.28527722137145
  H   8.25893489363078      0.42117208431707     -1.76586030173497
