25
Coordinates from ORCA-job 13346optt
  Br  1.28162596218392      0.41583437379442     -1.54193880739128
  C   2.92745282381835      0.10370339730498     -0.70706500262655
  C   3.33725182416434     -1.14247907506816     -0.36166532105900
  N   2.59502336754496     -2.32220607870050     -0.61003145045856
  C   3.49560173750551     -3.43326174687586     -0.91641432689098
  C   4.47028977474421     -3.59764130888020      0.23014928114013
  O   5.22369496998917     -2.40098468793555      0.44775536732905
  C   4.67754149564948     -1.20845451372158      0.19317968955826
  N   5.42271800804888     -0.18766953176181      0.42742176302272
  C   4.96086665551396      1.08495934776717      0.16630271276579
  N   5.55735594948714      2.17702069740803      0.40292776055740
  N   3.68982150120135      1.17825090766462     -0.44660397340428
  C   1.56521542655186     -2.63383480679208      0.27846940867113
  C   0.80663891159643     -3.76858338718292      0.44986403213234
  N   -0.08589330450426     -3.53115843674643      1.44764291533160
  N   0.06682030010893     -2.33965326998729      1.89506797757899
  N   1.07492262277433     -1.78186978049383      1.20107721596095
  H   4.02054636541517     -3.20044340654166     -1.84358128654930
  H   2.92022012594817     -4.34378956171113     -1.06420554592466
  H   5.20824622175433     -4.37286972764434      0.03386888965984
  H   3.93013777135165     -3.84498636241137      1.14786124978727
  H   6.45914919386546      1.98428337765960      0.82789228470841
  H   3.37633901822914      2.10954126646616     -0.67866467306100
  H   0.83873388777195     -4.70915386915397     -0.06995301884311
  H   1.36167938928556     -0.83755381645628      1.40264285800482
