22
Coordinates from ORCA-job 13355optt
  Br  2.14394449136763     -0.18619586090546      1.07791465306390
  C   3.80006643172614      0.62864831909525      0.86936264194714
  C   3.98424182065227      1.88430902170569      0.32653964804261
  N   3.10508837989503      2.76372981345164     -0.15085951992773
  C   3.85411831398669      3.80500733184046     -0.55161596524280
  C   3.25504690501999      5.01060825049420     -1.15160147169024
  O   2.08224169089066      5.17371060797914     -1.34093993015345
  C   5.24737446032172      3.60702614303944     -0.33371619130188
  C   5.34956802599557      2.34894894823837      0.24407195059624
  C   6.38866746015737      1.53104314256651      0.71015997857096
  N   6.15867361447999      0.34880753284341      1.21607568876366
  N   4.87840588089455     -0.04772859705462      1.26989056862542
  C   7.80836404430173      1.98724860593141      0.64728523272896
  N   8.69670549105767      1.20151327272682      1.09818040958478
  C   8.17694282684097      3.30925929259135      0.07916455597767
  N   7.57160554823209      4.31494120916499     -0.44114528106706
  N   6.27612836149118      4.47218130169870     -0.63521469868239
  H   3.97655134366577      5.80415415441667     -1.43414575071111
  H   4.75877206375759     -0.96926588782926      1.66804000341485
  H   9.62644230938788      1.61317332837007      1.00684152427622
  H   9.25247907966621      3.46277867609250      0.11165290275242
  H   6.05757145621127      5.35710139354271     -1.05894094956817
