20
Coordinates from ORCA-job 13367optt
  Br  4.18921000229546     -0.80294341367746     -1.99849211796435
  C   3.42586161772471     -0.05907388667964     -0.45883775141918
  C   2.26332618596834      0.66704607763240     -0.53684939932986
  N   1.64517080363723      0.64515544289997     -1.77709402495997
  C   0.83598858285074      1.44704195991245     -2.32153580638932
  C   0.30201366785051      2.74821396220707     -1.82433625433073
  O   -0.13368814890126      3.53682731967863     -2.63195041420912
  C   0.24433018357616      3.01343622111429     -0.39579734980089
  C   -0.52988510048842      3.97041909711867      0.19617870836509
  N   -0.48668716627996      3.86407149979946      1.55598423624942
  C   0.30435713342085      2.86446443812307      1.80661205482052
  N   0.79352087394726      2.27648591399977      0.65824902206673
  C   1.80308838814532      1.29936546855062      0.69609592861230
  N   2.23011749726359      1.05981272876719      1.88727289788476
  C   3.21921182695934      0.19160603310567      2.23741869317407
  O   3.45490954465393     -0.17378561853460      3.34988668736154
  S   4.33935161290194     -0.38737875628198      0.94091095033752
  H   0.50539623853528      1.21377915586303     -3.33264186387672
  H   -1.13035912867109      4.70508509841391     -0.31454304198535
  H   0.59376538461001      2.50037125798743      2.77646884539352
