25
Coordinates from ORCA-job 13362optt
  Br  1.14197016024175     -0.04913170543035      0.30048206997955
  C   3.01678694316181     -0.07478175300821      0.20103606358963
  C   3.68787815539347     -1.25489934075934      0.22708130277410
  N   3.10688673961224     -2.49322223653779      0.37014690675102
  C   3.64227358660736     -3.58133130831551     -0.43000171272463
  C   5.12784076453486     -3.70346203761013     -0.19611166114156
  O   5.75782625596993     -4.67189825065797     -0.50909401448787
  C   5.78370417078864     -2.50690413175026      0.49223235727939
  C   7.26319747669644     -2.45239222876490      0.16218684325009
  C   7.89606957652285     -1.18039672575371      0.70951322339057
  C   7.23304713962819     -0.01461383156291      0.03078777785460
  O   7.81601605289932      0.88099887905216     -0.50148400269123
  C   5.70323660831430     -0.03061069947738      0.04614741082899
  N   5.11553117342418      1.09766095568613     -0.00116414253398
  C   3.71383912434437      1.20007309319334      0.09428478837680
  O   3.16255274844216      2.27134444983361      0.07723367198097
  N   5.07147064788986     -1.25811418194384      0.14950625516121
  H   2.09768414228569     -2.44237435330778      0.39780289750087
  H   3.48565193015243     -3.43716712387874     -1.50679631479645
  H   3.17029172227804     -4.51901386709803     -0.14255249520278
  H   5.64967501137384     -2.67354640281351      1.57018506600993
  H   7.39358016727742     -2.50379354454945     -0.92135269081231
  H   7.72836334376651     -3.34431537881917      0.57690841830838
  H   8.96702325467889     -1.13425569273384      0.52595957886239
  H   7.72060310371533     -1.10485258299238      1.78806240249232
