23
Coordinates from ORCA-job 13366optt
  Br  1.18271601626215      0.11584173745019      0.30156836201047
  C   3.01631861693762     -0.06047900001465     -0.01640479577971
  C   3.61362279566749     -1.24900960913017     -0.12205538056978
  N   3.04093236580998     -2.51806452603097     -0.00169045472257
  C   3.67787317064108     -3.39862463430443      0.97833732159514
  C   4.85244902659877     -4.19340008897693      0.35848381035313
  O   5.52456893336022     -3.51005037612894     -0.68306128744967
  C   5.90767653495042     -2.24063716305303     -0.46644098709984
  C   7.13773267377086     -1.63839330899599     -0.50112183565894
  N   7.00227533907100     -0.28397226229618     -0.38149733190565
  C   5.72171268818837     -0.06432090660175     -0.26618116372740
  N   4.99747277339067     -1.22125628413521     -0.31739605282989
  C   5.02972574212029      1.21918517379288     -0.14991891619551
  N   5.53160156954469      2.36245834696303     -0.09556732717521
  O   3.64848875859563      1.12785432979626     -0.15468592377884
  C   4.09390089337243     -2.67207530750632      2.19695400192208
  N   4.41013612857267     -2.08983933106969      3.13162442269658
  H   2.04123615898019     -2.44714046705022      0.13281867897470
  H   2.93390893844409     -4.13150344579364      1.29243535599315
  H   4.45578405681815     -5.08834760490958     -0.11452667026771
  H   5.55700103636171     -4.47545008409193      1.14429549309313
  H   8.09371499208319     -2.11591850725205     -0.63085881916150
  H   6.54715079045826      2.28814331933936     -0.13111050031617
