28
Coordinates from ORCA-job 13360optt
  Br  1.57715411029416     -1.80115702403845     -1.82911052537109
  C   2.98796418860279     -0.99753279220686     -0.89139470597496
  C   2.89411444915090     -0.72384994801500      0.42896806481161
  N   3.95378541283530     -0.05787012884252      1.03138862388150
  C   5.22303213580114     -0.46634899547634      0.67075891387705
  C   5.38645655599119     -1.14958103270604     -0.47595499936034
  O   6.16674434168227     -2.30458846526632     -0.47282025510953
  C   5.20618678013842     -3.28286635996967     -0.01430972334469
  C   5.39433573195190     -4.77361618739106     -0.22784343000374
  C   4.06240256784359     -5.26763711607208      0.42128169985270
  C   3.61567661930066     -4.16429781924279      1.41957549653001
  C   4.82413201753098     -3.24875745138786      1.47718014157189
  O   2.52033349421544     -3.39881160823074      0.82996371086919
  C   1.89808172810680     -2.44201843081952      1.55295078020561
  N   1.94277048927678     -1.18725690999564      1.34967901962640
  C   4.32714144690654     -1.07852499468169     -1.52050787279529
  O   4.51514118643609     -1.33485045911126     -2.68545698484790
  H   3.79870154885789      0.25928484165243      1.97533548899678
  H   5.98127502122216     -0.44167459013999      1.44136725015713
  H   4.29100981748225     -3.08717499501814     -0.56831945164983
  H   6.26689905640190     -5.16073674922128      0.30016934177702
  H   5.46425299535984     -5.04377033104606     -1.27888563330474
  H   4.19045072083783     -6.21672012370609      0.93864714104288
  H   3.28691111557822     -5.40000699733221     -0.33257980198562
  H   3.28435417105916     -4.55728638308388      2.38187760042692
  H   5.62178132221805     -3.69716915199628      2.07515636816226
  H   4.57201689894072     -2.28605701842806      1.90595500362598
  H   1.25989407597697     -2.81112277822657      2.35592873833279
