21
Coordinates from ORCA-job 13364optt
  Br  4.00539833718795     -1.12907579173020     -1.92714222846162
  C   3.32449239844760     -0.26127516340916     -0.42084846846744
  C   2.29788398513249      0.66380188024469     -0.47535756625446
  N   1.77896940385696      0.84941692876620     -1.72464999647676
  C   0.88296578756163      1.65962544254583     -2.12359261407039
  C   0.10169754177218      2.72527183845177     -1.44044706062021
  O   -0.60977460145225      3.40897201648843     -2.14086781656014
  C   0.15166376002351      2.96471640099957      0.02724129449368
  C   -0.65290623240345      3.91603233241676      0.54640289274444
  C   -0.55956830157935      4.07906409756984      1.99053146110099
  O   -1.14282632716708      4.83622919498026      2.71204674947338
  S   0.65551459616217      2.88864731501508      2.59465768995537
  C   0.97922999707374      2.26272671457506      0.98238110087875
  C   1.91396110320565      1.27964126229586      0.78557798986845
  C   2.63142131722737      0.76011936626207      1.94280447243282
  N   3.56827317388984     -0.11630688427507      1.92971530945835
  N   3.92169308807443     -0.60214929644541      0.72885630432542
  H   0.62727208020835      1.61806207277268     -3.18115908906986
  H   -1.32283669097913      4.52603310432918     -0.04010606742387
  H   2.38222658378155      1.12306467230397      2.93088258033450
  H   4.66824899997582     -1.27961750415745      0.73807306233860
