26
Coordinates from ORCA-job 13377optt
  Br  1.61406064586773     -0.06762977259763      1.56362904074825
  C   3.34144132274964     -0.05876576033311      0.85952827538641
  C   4.19545372258691     -1.08024442095953      0.95111793650137
  N   4.09160187193119     -2.30681042366800      1.61972906375593
  C   5.39915735929270     -2.93898035550827      1.58478658748108
  C   5.32188856824236     -4.41899048679183      1.33579143796997
  O   4.29772334889874     -4.99931439777626      1.10503424099678
  C   6.21802121036050     -2.23443308898789      0.46490246650877
  N   7.62942745521764     -2.24618912853101      0.74326292457995
  C   8.40436542007048     -1.57231537561555      0.00289802680838
  N   8.08283881898168     -0.70586274502684     -1.02960320686191
  C   7.18606660364300      0.44461775518004     -0.91908846313292
  C   5.85633914088062      0.20290529086955     -0.28083553845045
  C   5.48549443962191     -0.92610742506962      0.32978426437090
  C   4.90351830143444      1.32099241835133     -0.31967613333063
  N   5.06282641206431      2.47979408914868     -0.79809602678210
  O   3.65488192056309      1.07979340036249      0.20963164032858
  H   3.33295880175040     -2.91901244519897      1.34099953813886
  H   5.94413638947372     -2.78216495280655      2.52305642817926
  H   6.29318380501145     -4.94410034844437      1.35493094676317
  H   6.06038751745566     -2.76923163697547     -0.48491593027419
  H   9.47462044292978     -1.73301715217101      0.13027855058640
  H   8.90480374037011     -0.44678180263802     -1.55447368104737
  H   7.02298221986333      0.81660793626040     -1.93456297691200
  H   7.68006529635081      1.25431059071635     -0.36384159219261
  H   5.99275522438773      2.60293023821111     -1.18226782011987
