22
Coordinates from ORCA-job 13373optt
  Br  0.96603215748496      0.01293484952179      0.14893220449421
  C   2.84232647913433      0.03131114380680      0.02097510232134
  C   3.54608904233560      1.22187216533886      0.04537345627484
  N   2.98700845846455      2.46980149057311      0.21993783159613
  C   3.68959796206596      3.66456888025980     -0.22573953865459
  C   5.19490046193009      3.65070989082498      0.03396008252293
  O   5.81639861210825      4.67607820586594      0.14415165139703
  C   5.80118704805888      2.30926027143910      0.02710460193367
  C   7.12015954213935      1.98816477091464      0.00278249145888
  S   7.38233860116978      0.29267101687899     -0.10369942405312
  C   5.68479264223129     -0.02772435427732     -0.10787885911978
  C   4.93919035837137     -1.19993771676252     -0.13505832516280
  C   3.55593458622125     -1.17551954163810     -0.07527754875809
  N   3.09892276522498     -2.48614698110559     -0.12481954950822
  C   4.16788318858351     -3.18859853649011     -0.20515350404675
  O   5.33436709567031     -2.49846678143494     -0.21765367200507
  C   4.95814315495263      1.15967708372841     -0.03232578850495
  H   1.98212499309058      2.50391594954462      0.13524897153982
  H   3.27489535605227      4.53778503535316      0.27339526772944
  H   3.58791315846115      3.81843687254552     -1.31027970294116
  H   7.95624963739619      2.66980627876409      0.02233504670203
  H   4.24954469885266     -4.26159999365122     -0.26531079521580
