22
Coordinates from ORCA-job 13380optt
  Br  1.03675274888883     -0.09318669450884      0.09589961207350
  C   2.91349785932457     -0.00614698290077      0.06784616225138
  C   3.62011589640078     -1.17914029579884      0.04565678136255
  N   3.15112112550792     -2.44859713191130     -0.02424394413795
  C   3.96542343833758     -3.60940629417814      0.32845141957148
  C   5.46921123146985     -3.44666453586195      0.06674871986760
  O   6.17629359627194     -4.41448907674093      0.00826055679475
  C   5.91984467748147     -2.06096825075409     -0.01825364955752
  N   7.11157792320218     -1.50551299394160     -0.06608947905379
  N   6.97648384812018     -0.17468704063885     -0.05582390060832
  C   5.67469425725198      0.10921437019688      0.00135525042144
  C   4.96715069986801      1.33001679975038      0.01192110671797
  C   3.60241338572454      1.24879700749768      0.04784094717808
  O   2.74347547596342      2.31650141745161      0.04779882100636
  C   3.12205382842831      3.60946306245000      0.17883920640222
  O   4.22766640330659      4.02248408168671      0.30165049948180
  N   4.97643592922819     -1.06428972652130      0.03379169079219
  H   2.14997448735958     -2.54770351947872      0.04474160607374
  H   3.63289802268833     -4.46745303778295     -0.25239976000960
  H   3.86499920979970     -3.86198252603956      1.39035359606821
  H   5.50281990242068      2.26132799580692     -0.00977432807373
  H   2.21509605295531      4.22242337221765      0.15542908537765
