21
Coordinates from ORCA-job 13383optt
  Br  0.94068712389778     -0.82130455026283     -0.60612119927003
  C   2.75075746942621     -0.46438687492384     -0.21983148088874
  C   3.21092645490171      0.83057500126575     -0.13048174932007
  N   2.47679894752856      1.97031019818205     -0.35987966574633
  C   2.90882129937268      3.24724328839004      0.19288084967057
  C   4.41581860473131      3.50431291124816      0.12885184707144
  O   4.85704906093049      4.61651981088467      0.08236051524925
  C   5.24255961825892      2.26785637768391      0.23041962853713
  N   6.53084580599723      2.23662553997268      0.43023664593712
  S   7.05972620242264      0.68350211782911      0.53913049891801
  C   5.51222847145249     -0.02505614041895      0.30623583928304
  C   4.99851096223313     -1.32367280792667      0.21239457449274
  C   3.65619338921069     -1.53275595445320     -0.04230367127400
  C   3.57336033467381     -2.96036724737950     -0.05894798202959
  N   4.72732218755249     -3.50824250368810      0.15838896608664
  O   5.64252180888061     -2.49275998251872      0.33091353637911
  C   4.59280510473514      1.00741784243466      0.14678106194360
  H   1.47776577481729      1.83995422569534     -0.41592234888938
  H   2.65051736321087      3.33523823910166      1.25870906252641
  H   2.41518831540137      4.05875838694661     -0.33701538192965
  H   2.71059570036452     -3.58676787806284     -0.22279954674727
