24
Coordinates from ORCA-job 13392optt
  Br  1.27447306444375      0.03565617647739     -0.42854138484461
  C   3.11243640480312      0.17153795493977     -0.23702948696543
  C   3.79424540547403      1.33975643540396     -0.10147583407717
  N   3.35510695328953      2.62182741583202     -0.06938347886151
  C   4.46655607408895      3.32938627960260      0.09060383889789
  C   4.39449271493532      4.80538313149014      0.17584613435873
  O   5.36567980406220      5.49665841902777      0.32616329326591
  C   5.66203544360477      2.54933892187947      0.16898002565316
  C   5.22597932536581      1.25702865555290      0.04070827260240
  C   5.80328984826167     -0.04526028601880     -0.00115373241049
  C   7.28926263630975     -0.25979514631967      0.04019480716197
  O   7.81686439355971      0.53010428734447      1.07322140656934
  C   9.22604603686072      0.45278576232966      1.12682756047121
  C   9.72884159869815      1.37543477948611      2.13835733443875
  C   10.15964604430198      2.13055680488678      2.95960006801950
  N   5.10616501505748     -1.12466838226737     -0.12431401245734
  O   3.72641028294499     -0.99508165303835     -0.24233073077067
  H   3.37815483055721      5.22570495889519      0.08873200425251
  H   6.66111557521794      2.92170743102241      0.32084824571838
  H   7.70745807227139      0.04979949721843     -0.92829262590033
  H   7.50037788208507     -1.32337601532300      0.18806651461872
  H   9.65449573298388      0.71438719115020      0.15103120043135
  H   9.54016026719617     -0.56999602969497      1.36714214920614
  H   10.53470659362634      2.80712341012287      3.69019843062159
