23
Coordinates from ORCA-job 13399optt
  Br  1.33521585193799      0.08780144562925      0.73956116778909
  C   3.19229201756916      0.02839009038633      0.48605246466876
  C   3.88119916307140      1.18877518485501      0.23822739019068
  N   3.40000526975081      2.45356737772120      0.15321164246258
  C   4.46333747436805      3.20211237689538     -0.10322316180232
  C   4.31244473248922      4.66395606677212     -0.26225648765820
  O   5.23601955794117      5.39453428515333     -0.50463357117906
  C   5.68762866023075      2.48064023242467     -0.20043464805930
  C   5.32055408827532      1.18032197755728      0.01975238314675
  S   6.24871007027583     -0.25224017137815      0.06307427870103
  C   5.01909025896575     -1.39705822351713      0.40000767800856
  N   3.75027396124795     -1.18910502045829      0.56485348201317
  C   5.50112136859963     -2.82029171152329      0.47997644112532
  C   5.26603047044779     -3.66355204354248     -0.78965472778501
  C   6.79933976088636     -3.69433944388324     -0.86547931454223
  O   6.91527853880864     -2.92356785721670      0.35003041169932
  H   3.28100752565746      5.03580969037874     -0.14031046790529
  H   6.66176982810343      2.89442535039206     -0.40075507004943
  H   5.12848075575486     -3.25434461647967      1.41011610426817
  H   4.75620925736198     -3.14399234661027     -1.59632885169601
  H   4.78924713367595     -4.62133109639399     -0.60618276670764
  H   7.24498036880844     -3.16864625008974     -1.71041147067830
  H   7.26076388577196     -4.67486529707244     -0.75419290601061
