24
Coordinates from ORCA-job 13395optt
  Br  1.02257470496235     -0.13033028661004     -0.28966280634107
  C   2.89792717322326     -0.08449397886913     -0.18328558015716
  C   3.59552410000913      1.12102968802668     -0.21191943385382
  N   2.98894495220452      2.34679615982519     -0.32729431251949
  C   3.57709825467825      3.48540315735090      0.36328233568036
  C   5.08592289988320      3.56699200684201      0.19624498833120
  O   5.68075595624124      4.55634980832433      0.52083385488577
  C   5.76883475604045      2.35065979113157     -0.38577462504744
  C   5.01233604032070      1.07009982931012     -0.17642045919332
  N   5.68428353774550     -0.05113712134069     -0.05139118750440
  C   5.00625382786119     -1.19931246106446      0.01156407109238
  C   3.62124794651588     -1.26326792271617     -0.06720803736584
  O   2.98819757466783     -2.44654143724709     -0.02023605880200
  C   3.70633923888457     -3.64310716357609      0.12406661945535
  N   3.07648517242172     -4.72594886119803      0.18592802779898
  N   5.09510448079544     -3.59655885664160      0.19037735530366
  C   5.69033631654590     -2.46734777628922      0.13905902062627
  H   1.97943063688142      2.32082611425079     -0.31135520962468
  H   3.39057901712841      3.44878372316940      1.44423166381063
  H   3.14658871251279      4.40984449263860     -0.01753775875015
  H   6.78521970105574      2.27607224894545     -0.00588409938787
  H   5.83479914962189      2.54020598182703     -1.46568276437306
  H   2.07372872942085     -4.56516178822826      0.12126794410664
  H   6.77648712037769     -2.44885534786128      0.19179645182904
