23
Coordinates from ORCA-job 13407optt
  Br  1.47976610197010      0.45347428218947      1.85851156966326
  C   2.94205619481502     -0.01186642300427      0.77831897412478
  C   3.69717524977668      0.89698961447489      0.09920834441999
  N   4.77765163170195      0.40354548171641     -0.60054505634216
  C   5.81886545546271      1.29748664885086     -0.92291500072929
  C   6.19617728023431      2.03825562047086      0.10185244728533
  O   6.95525881725715      3.16781748073495      0.02485382041454
  C   6.22834931244131      4.22194106376553      0.44506919531949
  C   4.89079610242649      4.32346068184517      0.52176707849628
  C   3.72858003159059      3.56710402987243      0.04436205035413
  C   3.23846991413541      2.31140871816881     -0.10942123421960
  C   1.90978479257657      2.29625440980428     -0.68018449078519
  N   0.87047211002808      2.29271694624520     -1.16772032084518
  C   4.99397423672313     -0.98304306717642     -0.84006151708967
  O   5.87187712942374     -1.31028810276790     -1.59255853122967
  N   4.19711276499674     -1.85752746981876     -0.12725963953261
  C   3.27451709317593     -1.39197370716084      0.64446205918706
  H   6.18426249362059      1.35187736956200     -1.93704495178272
  H   5.80122817462981      1.85108046384049      1.09657156395054
  H   6.85609292933089      5.05737587350500      0.72419742903289
  H   4.58945877619141      5.30541168936194      0.86700365506349
  H   2.97331347360415      4.29123498985991     -0.25031468066245
  H   2.69575993388714     -2.11173659434004      1.21784723590680
