20
Coordinates from ORCA-job 13404optt
  Br  1.11226514906645     -1.73630986478910      0.49880821009236
  C   2.66952907946051     -0.73219521737782      0.24500843907737
  C   2.65544205556707      0.65066311405102      0.23435597033758
  N   1.42228409568727      1.21836386140238      0.52285411107477
  C   1.01903193119243      2.40536054536790      0.35518464319374
  C   1.64897929363185      3.63999355196841     -0.23867596911183
  O   0.88602745887308      4.52181591239155     -0.56451282291881
  C   3.09590844496742      3.79992434859603     -0.32065073597848
  C   4.01784153844675      2.83769635838767     -0.17758509394203
  C   3.86579986942678      1.41690080070173      0.01382303006354
  C   4.99535857085722      0.65382087754360     -0.09776209247152
  O   6.26385957492691      1.02501977931783     -0.28793121767299
  N   7.02574283200006     -0.15904525051167     -0.35371659308381
  N   6.28475852273584     -1.12840644200848     -0.22214570885356
  N   5.00695081297244     -0.69419794244456     -0.05885353793048
  C   3.86150772026210     -1.54371237198614      0.07872287633280
  O   3.98682379246746     -2.73356183753083      0.06447836652206
  H   -0.00334525856888      2.61834616618190      0.67057805856201
  H   3.41697637509141      4.81169921498405     -0.53350480839378
  H   5.05225814093566      3.14982439575445     -0.27747512489897
