23
Coordinates from ORCA-job 13406optt
  Br  1.44772486517272      1.73777538112914      0.69920052725628
  C   3.10258875098705      0.95023082210624      0.38124924472269
  C   3.25889558244789     -0.38428192520108      0.14323990930081
  N   2.17790002319328     -1.17373138690837      0.12017168069762
  C   2.09799249757061     -2.43849248961564     -0.13218531140887
  C   0.69996893626764     -2.95223662425261     -0.09809453127870
  O   0.40110197264667     -4.10265629576174     -0.28463901069411
  C   3.12629987634015     -3.42748149227069     -0.42636252137320
  C   4.45271242171548     -3.26476682860309     -0.45583937153729
  C   5.18631622797308     -2.04658320281514     -0.18875083931542
  C   6.52088819684093     -1.99470040799445      0.02428172640894
  C   6.90912708291899     -0.62322466363598      0.32907419688041
  N   8.02070842392050     -0.07149184549793      0.58506055317955
  C   5.61994736191897      0.13451479523555      0.26609355375889
  N   5.45499180867197      1.35856185031393      0.52766220460279
  N   4.15654052638982      1.81793805255620      0.36493984996576
  N   4.61689072409808     -0.76868150157370     -0.13588364634949
  H   -0.04994810889285     -2.17138003698979      0.11577641188751
  H   2.72128813783358     -4.41439417380348     -0.61706315982166
  H   5.08153573741851     -4.12105583964419     -0.66407510074365
  H   7.18648109223235     -2.84111718177047     -0.02528904911003
  H   8.77552353091186     -0.75737572000773      0.56816696769689
  H   4.01752433142264      2.74563071500503      0.73126571527428
