30
Coordinates from ORCA-job 13417optt
  Br  0.89280371896281     -0.58844554951606      2.23122590651126
  C   2.24524068404255      0.15296398940846      1.14038044951804
  C   3.09678735952967      1.07572716041952      1.65755641432159
  N   2.86065005901851      1.80258335704611      2.83312286340514
  C   1.79433361812664      2.80558619830268      2.61305258624007
  C   1.78684424815826      3.52837986966447      1.25479764584316
  O   1.25261333125380      2.64553025702077      0.27902580864765
  C   0.96880096765045      3.10114345730436     -1.02168791063842
  C   2.03370831810134      2.83730205843265     -2.10005784105825
  C   2.39833234360608      1.35251919080451     -2.36485209194822
  C   2.86740691265482      0.75879856514552     -1.07252528054809
  N   3.96974267656071      1.36688551831117     -0.53530995247302
  C   4.16574866837350      1.59679694505601      0.80964095865413
  O   5.09727972099515      2.27684546167090      1.20858486110184
  C   2.10460067392356     -0.01871137866071     -0.26896701209318
  C   -0.35542617473715      2.45144787478952     -1.40722893941631
  O   -0.69985650331282      2.27340809473667     -2.54045744894560
  H   3.72304540705434      2.26247123581930      3.10426126991438
  H   1.88747896753151      3.55076149917074      3.40313306138635
  H   0.82504573021589      2.31634464154343      2.72912370032521
  H   2.79794330108788      3.85087584625550      0.97768409205272
  H   1.14880305388077      4.41677850308343      1.33417951332186
  H   0.77543106909710      4.18532264514301     -1.00504903127947
  H   2.93278720716993      3.40060819632373     -1.84199183013114
  H   1.64426851450729      3.26265155630839     -3.02638138995112
  H   3.16908750105878      1.32195678886392     -3.13921942041004
  H   1.53072045756812      0.80955596290351     -2.73608643491294
  H   4.58572790040775      1.89932473765994     -1.13545519252915
  H   1.22944412338156     -0.51598997765965     -0.65998275302884
  H   -0.98339385586882      2.15757729464816     -0.54551660187963
