28
Coordinates from ORCA-job 13414optt
  Br  1.35953424707925      1.50477661467798      0.42379719002423
  C   3.02454215153507      0.68368192302828      0.10524890087529
  C   3.07998477939583     -0.60974996292798     -0.39548089741179
  N   1.92858827353364     -1.36711491658908     -0.69649704314054
  C   1.39406129426562     -2.17546029044554      0.40554670941085
  C   2.22492977973971     -3.43950828694583      0.62736675417914
  O   1.77814047276865     -4.51964129458440      0.33387446848066
  C   3.64635742929629     -3.30568672482040      1.15462517811272
  C   4.70115841618500     -3.38385148794550      0.03945920885702
  C   4.76553295441164     -4.74513757413187     -0.64505237286560
  C   5.23300291213824     -5.77855952297842      0.27146598718669
  C   5.62419541038298     -6.60192055857272      1.04788910707096
  O   4.42968655563166     -2.43809941373576     -1.00550893366549
  C   4.36490473918709     -1.14893877805123     -0.56521340935585
  N   5.48831468390892     -0.52176505724379     -0.30371831354064
  C   5.40016333257495      0.72567802857959      0.15868497011964
  C   4.19846448354696      1.37043858187691      0.38806789926419
  H   2.11395630692094     -1.96457618255522     -1.49416506056246
  H   0.37807776097517     -2.48242232586503      0.16273723215780
  H   1.37425745439861     -1.55960525814765      1.30751783430645
  H   3.83033460350982     -4.13838404874892      1.83528222235002
  H   3.76773185945148     -2.37168916246544      1.70508924204507
  H   5.67746031542947     -3.14694760338089      0.46995450950533
  H   5.44971744979974     -4.66103350586082     -1.49106595566875
  H   3.78045647664878     -5.01195063023468     -1.03267099213846
  H   5.97060124985734     -7.34324065499056      1.72733875707862
  H   6.33709453099377      1.22878090041140      0.36575550752591
  H   4.17075007643334      2.37892719264762      0.77367129979899
