28
Coordinates from ORCA-job 13413optt
  Br  1.14120782637097      0.00727345987681      0.33686213279741
  C   3.03270529939144     -0.06241796230153      0.30744617928799
  C   3.69084721975238     -1.29700882054362      0.25499062736440
  N   3.02601376592461     -2.50674430401070      0.25569660719475
  C   3.33101195770955     -3.51695349513624     -0.73411275136938
  C   2.13576717442497     -4.43986840999310     -0.85373249599415
  O   1.12980544866091     -4.30322422147112     -0.21753755877714
  C   4.63627549629823     -4.27406453559345     -0.43946340520735
  C   4.84174004252460     -5.50966465891301     -1.33524435324222
  C   4.71378273147846     -5.22008998337314     -2.76318532575700
  C   4.59009152119829     -4.96196285917424     -3.92633122653522
  C   5.82298462043021     -3.33415135283553     -0.60202824536656
  O   5.88087692363967     -2.33191446637765      0.39562606777340
  C   5.09281945130185     -1.22523329237045      0.27014274863915
  C   5.71702836862615      0.01219247614922      0.29707313615918
  N   5.06953762220101      1.17004791822776      0.33202742913879
  C   3.74428207309788      1.12520331680336      0.34785360980338
  H   2.02623543320184     -2.43413528867044      0.40621006478541
  H   3.44116330864243     -3.07657105476011     -1.74020249450569
  H   2.23101529554203     -5.23883715772399     -1.60825793060725
  H   4.60532403731200     -4.60600804643209      0.60097430229129
  H   4.13534451344366     -6.29727938046481     -1.06738751337430
  H   5.83728293725833     -5.91670533259058     -1.14366418849989
  H   4.48972572494926     -4.74120887006018     -4.96260930167987
  H   5.80973726307379     -2.87677583070955     -1.59830902134607
  H   6.75197124994904     -3.89476981235337     -0.49427745664855
  H   6.80091981852740      0.03786315531214      0.31800838179964
  H   3.21150287506897      2.06800880948961      0.38443198187584
