29
Coordinates from ORCA-job 13418optt
  Br  0.36147772810532     -0.06742557539475     -0.56285083195733
  C   1.65747895180237      1.14721282684448      0.02752029175363
  C   2.61923486535259      1.67027511326911     -0.77943074689932
  N   2.63878074988249      1.61568957226108     -2.15818893820509
  C   1.48349464535373      2.30468418689936     -2.77888361651001
  C   1.25872480079881      3.66352421021787     -2.07961899723581
  O   2.08934362560738      4.52427408546281     -2.20992682906600
  C   0.04433436391905      3.83629235873760     -1.18565783131824
  C   0.33717189165581      4.62846250131993      0.11150869237527
  C   -0.26387915732955      3.95665010496993      1.36261745712382
  C   0.55698387083254      4.04367103206024      2.66346595716455
  N   1.99650307894818      3.72596908468662      2.55459730027057
  C   2.39560312824064      2.85197256434152      1.58230750509226
  N   3.43268813713711      3.14214681189204      0.87876976449595
  O   3.63509085278568      2.38066789480789     -0.27106997176619
  C   1.59097916564693      1.60191838039001      1.39032687397738
  O   0.93086392945943      1.13147096113146      2.28775464375118
  H   3.50610535038907      2.02110052012567     -2.49210202078891
  H   0.60429170994564      1.66661034248983     -2.73041322852811
  H   1.73764525768061      2.48469203927187     -3.82170910057826
  H   -0.36464354531561      2.85032052024318     -0.95818088170465
  H   -0.71367925936756      4.34176929039227     -1.79401470601203
  H   -0.03697585155550      5.64744262806306      0.01717957197033
  H   1.41852000238345      4.72782883186773      0.20850831157164
  H   -1.24487641065806      4.38315101363319      1.58430979570061
  H   -0.45992201344317      2.90430222253455      1.15385226520634
  H   0.10276593462131      3.37460089467205      3.39382719640868
  H   0.51439388437562      5.05481942206492      3.06738070755017
  H   2.59250031274563      4.54190616074439      2.57012136615757
