29
Coordinates from ORCA-job 13425optt
  Br  2.20333749047200     -1.23727707672036     -0.72242433338498
  C   2.85571543510978      0.36341807534365     -0.01194984832994
  C   2.59169700968714      1.57898681646805     -0.53075323636856
  N   1.70537716699363      1.77309388636165     -1.59930922077418
  C   0.27657906275275      1.58278244003294     -1.34031900937095
  C   -0.40983040638438      2.79983272739716     -0.74970351193407
  O   0.22066745196432      3.10808263161324      0.47814560354548
  C   0.15019594598715      4.45934399869141      0.89619223001331
  C   1.56205774432154      5.03300523342658      0.88254294278012
  C   2.14043436850170      4.79037767830540     -0.49844066361665
  O   1.59101962292302      5.19699736276871     -1.48998139391943
  C   3.43318295053003      3.99495100075480     -0.59334914060036
  C   3.37081058131724      2.64684139940836      0.08005423963962
  N   4.07186557665822      2.49153318600632      1.14700608624455
  C   4.07877578652408      1.26235243910158      1.78920264959637
  N   4.50748552619585      1.01770570806953      2.94327399496566
  O   3.60931209529441      0.17013611522460      1.07115375860063
  H   1.88390088789122      2.62336396752839     -2.11693861036727
  H   0.16523721331520      0.73907908642636     -0.66086048140618
  H   -0.21912823751155      1.31413393941713     -2.27524087360475
  H   -1.47374846152687      2.58525542442550     -0.59124436874269
  H   -0.32954973639249      3.64595813798029     -1.44008145824089
  H   -0.49049710555366      5.03668282571853      0.22576577091510
  H   -0.27303024820962      4.49881105226432      1.90102795549662
  H   2.17569804812452      4.55103115032539      1.64413433242355
  H   1.54304877187082      6.10880854636865      1.07156403946536
  H   4.21743857557080      4.55958978036475     -0.08586360802431
  H   3.68770231786741      3.89216431874398     -1.64936102837495
  H   4.87624456570570      1.87495814818305      3.34475718337377
