23
Coordinates from ORCA-job 13438optt
  Br  2.22564988963992     -0.27427358790863     -2.81397343679514
  C   2.81873092112810      0.43681239013374     -1.19615963351402
  C   3.36251420561324      1.67440028478481     -1.09639735496862
  N   2.83995567889245      2.65172706394479     -1.95176465775517
  C   2.74357913292284      3.86449106572933     -1.58595833532230
  C   1.37562343336881      4.47906004625035     -1.85826910141605
  O   1.05663749708386      5.14420282700492     -2.80428928761266
  C   0.40679331613222      4.04188505029263     -0.79653438821015
  C   0.83220287384458      3.46450523273359      0.33814284347435
  N   0.07607600385126      2.98546019408266      1.40091674376138
  C   0.17830639985824      1.80717975854214      1.86861379038303
  N   0.81522348666707      0.71268122999537      1.27931574368484
  C   2.02177647733530      0.65559757189215      0.92762509916867
  N   3.06568461769082      1.49206827706246      1.28978421716739
  C   3.82395967115660      2.08064038112537      0.26122841550084
  O   4.62108676204599      2.94807287018605      0.49452504386573
  N   2.46348940745201     -0.27449174596316     -0.04961499541097
  H   3.36242758349084      4.32474690030055     -0.81077047376092
  H   -0.64437043025408      4.18532336553591     -1.01529609818675
  H   1.89799590744133      3.44895194167234      0.52522777985681
  H   -0.41398355901075      1.55667880957517      2.74434484568706
  H   2.98812099176580      2.03573887648269      2.14015037596721
  H   1.79251973188354     -1.01145880345529     -0.22684713556459
