24
Coordinates from ORCA-job 13435optt
  Br  1.92816946571143     -2.21029238259489      0.22301976285573
  C   3.02291559216642     -0.73346207319598     -0.14838045448136
  C   2.56264541503897      0.36943194109868     -0.74524172947300
  N   1.26722141999076      0.84630038165376     -0.98461444235733
  C   0.91316631609214      1.51935312588687      0.03302593168633
  C   0.04697304844670      2.72550408659657     -0.10407557188231
  O   -1.13037847023606      2.72717034572624     -0.34871058777383
  C   0.81879319607533      3.98126100044712      0.03898434711232
  C   2.06233824297374      4.39342009682044      0.39599309294561
  N   3.30040322811341      3.94843924181384      0.83655756449048
  C   4.00271461396843      2.76661250965162      1.12517485692691
  C   4.11810971332345      1.63577632763056      0.41338950297765
  N   4.77960220861361      0.51507867421616      0.92743383057957
  C   4.30729464294694     -0.61901984375100      0.56141212260717
  N   3.50036371438824      1.43681547714681     -0.82654314285376
  C   3.65295565588232      2.26724902430322     -1.91751537786017
  O   3.08652142189540      2.12631268668357     -2.96141902385612
  H   1.45712867765999      1.45958403680071      0.98456005199990
  H   0.16937170281664      4.81839078801793     -0.18816817755790
  H   2.12697387440346      5.47583621560112      0.36812963216001
  H   3.83366711916986      4.73953861422441      1.15935094623018
  H   4.62114095915465      2.83239821273968      2.01246884611018
  H   4.79586013601954     -1.52312920431934      0.91013921846173
  H   4.38204810538459      3.06543071680186     -1.70797119904799
