22
Coordinates from ORCA-job 13439optt
  Br  1.22191170960493      0.08486455051813     -0.25431893405154
  C   3.06798132375621     -0.10922517183124     -0.16305003504916
  C   3.69713880719634     -1.29616258555712     -0.08182993784325
  N   3.04584087504967     -2.51127688332069     -0.04647828326632
  C   3.77109904749108     -3.56400061626383      0.02273104913008
  C   3.02664621946590     -4.87282299079519     -0.03801443376457
  O   3.45201484383560     -5.73952158794700      0.99172224344729
  C   2.68112937417196     -6.91395920306093      1.02256249285098
  C   3.21394989865774     -7.81509747086824      2.04755786270208
  N   3.60688801572109     -8.54713012673665      2.83426548525895
  C   5.27359680645288     -3.54261579338587      0.05586013018784
  N   5.99873530985263     -4.58045560341876      0.09743720345901
  N   5.89372503516769     -2.28976401767817      0.01191324538089
  C   5.14483218729866     -1.27094505441061     -0.04548420770504
  O   5.74023067793688     -0.05343984892750     -0.08649371656970
  N   5.00424608580548      1.13210279081408     -0.14909952512675
  N   3.78054694998180      1.08769806601613     -0.18573826815199
  H   3.20876553107050     -5.33499443210969     -1.01966004946356
  H   1.96002938283487     -4.65045670564866      0.04944704971846
  H   2.71163683751411     -7.43305459709119      0.05735753917209
  H   1.63469662357727     -6.69073518097508      1.25876455404529
  H   5.43735845755667     -5.42500753732183      0.17454853563890
