29
Coordinates from ORCA-job 13440optt
  Br  1.99893006804306      0.01698805102665     -2.92430121123994
  C   3.18556830884372      0.01710823702423     -1.45933624514616
  C   3.47961198454241      1.16693273823228     -0.81871114504869
  N   2.74741979057737      2.35736406160282     -0.94022838701426
  C   1.48285984029570      2.25246398432776     -0.16731456444592
  C   1.61434585003623      1.69221706293903      1.27111372084821
  O   1.87539975679155      0.30287010896447      1.21249654148750
  C   2.27696853021541     -0.30120757592519      2.42562621809301
  C   2.53433754841713     -1.78630214348704      2.19000854272269
  N   3.79071030315512     -2.10953079019277      1.45696844528417
  C   3.98488590337616     -1.21684987983585      0.39622229337712
  O   4.65662730331372     -0.12522087321803      0.82756447490424
  C   4.44208336014766      1.11101453004351      0.28104863768051
  N   4.99847235531107      2.14180420435845      0.75480677990609
  C   3.44546931440058     -1.25311849431738     -0.83295052963561
  C   0.86519562216369      3.57654794233959     -0.09727863880069
  C   0.38315241139868      4.66780704340320     -0.00120565934748
  H   3.29828124578010      3.13128116855178     -0.58012675172279
  H   0.82224419624123      1.57728682768997     -0.71886616844280
  H   0.67261296426628      1.87337537173419      1.80074066764521
  H   2.41945333610434      2.21955127069482      1.79569420896346
  H   1.47624655345900     -0.21417217334271      3.17000364369915
  H   3.16983150637113      0.19490584631628      2.82394983009297
  H   1.66563128038400     -2.17496007212640      1.64705678221796
  H   2.58979664272335     -2.27930063246162      3.16070466557522
  H   3.74901105640149     -3.06383537579574      1.12306432852107
  H   5.60660011795912      1.91120553309387      1.53709009490559
  H   2.92319029377263     -2.13365628046774     -1.17446665771457
  H   -0.04893744449199      5.63743030882756      0.06962608263472
