26
Coordinates from ORCA-job 13443optt
  Br  2.23302998244984     -0.77546981961681     -2.34753802823338
  C   2.61454965022436      0.22701623661749     -0.81234342782448
  C   3.04621298200925      1.51143752807317     -0.86891315548523
  N   3.01146942951752      2.24630710367859     -2.05714418820004
  C   1.64137805501949      2.68109028947779     -2.39424094043156
  C   1.05936373196564      3.73516673488629     -1.45450877575216
  O   0.85774622402320      3.19964889758188     -0.15457785133072
  C   0.89231770703707      4.14738379177843      0.88346410273938
  C   1.20553398859351      3.58587156731578      2.27152393107945
  N   0.68574719371147      4.05730371100896      3.32337501590326
  N   2.14778153727046      2.56181991707813      2.45495636733669
  C   2.61950187778392      1.76113321883352      1.44393216608325
  O   2.17150617667823      0.49537698177743      1.50984052395051
  C   2.33185648703428     -0.41452313599559      0.46168642930807
  O   2.13983319214041     -1.56610897567285      0.68800104814267
  C   3.32352612076831      2.18858964988963      0.38078670458225
  Br  4.22433278116518      3.84295489731057      0.39699757106853
  H   3.62904392912503      3.04752906913768     -2.00939339685370
  H   0.99892778764115      1.80116264813125     -2.41486271802197
  H   1.66058236982124      3.09699236568517     -3.40247826434500
  H   0.10678067193202      4.09468718811248     -1.86215125917834
  H   1.74535494303301      4.58905960808734     -1.39831206346060
  H   1.64471317991686      4.91609332184472      0.67571614670400
  H   -0.07780213294463      4.64678452946640      0.97384287462795
  H   -0.00259035518454      4.77339623179601      3.11287896665609
  H   2.06930248926767      2.14229644371650      3.37346222093509
