26
Coordinates from ORCA-job 13446optt
  Br  1.03414722141564     -0.08308614636736      0.32003791491965
  C   2.91525212236596     -0.05077716081985      0.16571544958034
  C   3.55670826123038      1.17467708987876      0.09074861589330
  N   2.98883063368481      2.42752538648694      0.03676313169874
  C   4.02829618786498      3.42835256860705     -0.14312506737744
  C   3.77276107452041      4.65347608550269      0.71292719535197
  O   2.76495674565316      4.78632841448356      1.34626433577758
  C   5.37484937454222      2.68279161931383      0.04726078373740
  C   6.03450761821084      2.91449953038524      1.39290560953685
  O   5.65076769197985      3.70720376159148      2.20370643560365
  C   4.94926845705395      1.22926413098988     -0.01664036352942
  C   5.69542332358324      0.07200193240589     -0.04664453363706
  C   5.05533067937270     -1.16027917515124      0.02845091098224
  C   3.66443009810751     -1.23455731455811      0.12151519092928
  N   3.01146325596504     -2.46723267208422      0.17322448900808
  C   3.43979953992265     -3.62655343442828     -0.41513231134487
  O   2.83272877272263     -4.66331782458912     -0.35757553176313
  H   2.21781248308412      2.67431914949220      0.64449849260679
  H   3.99935424208875      3.80713132312745     -1.17427343949496
  H   4.52201014408417      5.45742685374269      0.63050394125061
  H   6.10059685438558      2.93645941250289     -0.72890839448210
  H   6.90340215046446      2.26070585157112      1.59787279825675
  H   6.77630892948933      0.10882458962396     -0.10771102551094
  H   5.64094335754546     -2.06740520715645      0.05080147505978
  H   2.07443478746332     -2.49558672321535      0.55379882303718
  H   4.38761599319875     -3.51719204133564     -0.96098492609027
