26
Coordinates from ORCA-job 13442optt
  Br  0.73981199576698      0.98682618026616     -0.13368986771556
  C   2.62649390882062      0.76992527100610     -0.07722795476276
  C   3.38603859752252      1.16971106446937      0.96212141223000
  N   3.09288624280039      2.27073675136190      1.82852480889187
  C   3.72332641967618      3.38163031214875      1.12434262248125
  C   5.07858803068261      3.78368514887635      1.59293850885907
  O   5.62289201267751      3.27396708043033      2.53568537996976
  C   3.19996410974210      3.80496122223285     -0.03373390273969
  C   3.86156605981910      4.51501862264611     -1.15751712406834
  N   4.62154664599023      5.51801242495667     -1.04079523047913
  N   3.46323209139883      3.94558639311496     -2.39935574077508
  C   3.85653009921629      2.80279471040765     -2.78132854074813
  C   4.84997191538626      1.97826729251686     -2.04380260725169
  C   4.57135330374873      0.89090905696232     -1.32967051476206
  N   3.23339590740514      0.36826886297992     -1.26252737038024
  C   5.40618013865737      0.47280156193489     -0.17963325560625
  C   4.77726719110523      0.69538213729412      0.97917085756336
  H   2.09098085714201      2.41941324852453      1.89421817136026
  H   5.55324512089256      4.57883274291191      1.00071233955826
  H   2.24457958361797      3.37931507631453     -0.32346870167156
  H   4.95502019494277      5.82172972913039     -1.95604986603930
  H   3.44574257253929      2.42562575042768     -3.71674419000566
  H   5.84040946816641      2.41057311995729     -1.93122594016604
  H   3.10213147595380     -0.59426976391637     -1.56026097790634
  H   6.43061211552453      0.13746957412342     -0.26383710524694
  H   5.25323394080451      0.60082642892127      1.94715478941094
