25
Coordinates from ORCA-job 13449optt
  Br  1.19527955998904      0.01217481199286      0.63836014289663
  C   3.06259288606436     -0.16885784680386      0.55360856984485
  C   3.63021141067166     -1.34004433405506      0.11066440063712
  N   3.09231698213661     -2.50081628651478     -0.33107980894925
  C   4.13917598145831     -3.26451054337451     -0.62384913208339
  C   5.39158934538240     -2.64950117429069     -0.37152203545093
  O   6.64387393002330     -3.17572666811185     -0.59733845743429
  C   6.90827301957074     -4.35414077565102      0.11218216971741
  C   7.12807840130590     -4.13938035579218      1.58998291099838
  O   7.15947673821043     -3.06477334174701      2.11850170865475
  C   5.07206742120410     -1.39376348049865      0.10019751051186
  N   5.77825303779565     -0.29179546046814      0.49169741962056
  C   7.24994873466308     -0.35621371174843      0.42441507836780
  C   7.91264025092098      0.86279307260847      0.86405020169619
  C   8.49241129403932      1.84687806509591      1.21857276596010
  C   5.09815337595091      0.79388699653238      0.89183964216841
  N   3.79211201601728      0.88105629674813      0.93815611278826
  H   4.00038638922857     -4.26213054154084     -1.02218702029088
  H   7.82369753777131     -4.79111742976955     -0.29873803445847
  H   6.11300702695998     -5.09916643264019     -0.01222473090950
  H   7.27506027234552     -5.06885681508251      2.17377630762646
  H   7.51688002653851     -0.57913501661444     -0.61024650851501
  H   7.55880205417700     -1.20444293541326      1.03575420171071
  H   9.01086043887303      2.72095815344533      1.53554515763887
  H   5.69385186870192      1.64462575369390      1.19088142725333
