25
Coordinates from ORCA-job 13456optt
  Br  1.04174029178212     -0.05021147162473      0.34036258630585
  C   2.90348098490524     -0.20923668731673      0.18887241473196
  C   3.57178268576368     -1.39671357523436      0.26257962600597
  N   3.01911429193688     -2.63050070572947      0.55290821653463
  C   2.08659452736940     -2.80456679242108      1.63813688666136
  C   0.66152933745723     -3.14476788691781      1.25697872534014
  O   0.29763217501835     -3.42054355580135      0.15149724608294
  C   3.19927540142686     -3.74946988796578     -0.36308532532860
  C   4.58344358359822     -4.36403682420779     -0.53550596419291
  O   4.68453151378663     -5.54106199296354     -0.75727899806480
  C   5.81455647309963     -3.48176660740193     -0.57915796733446
  O   5.79087882610965     -2.42947090059177      0.36428349117931
  C   5.01455492785096     -1.34699678192670      0.06960349223427
  C   5.60759355732944     -0.18176252495558     -0.21325248678000
  O   4.93425809151107      0.96882683059311     -0.32634753593401
  C   3.57620365075418      1.05677774798033     -0.10303571022329
  O   3.06096535727548      2.12880230793557     -0.19592184104810
  H   2.07597505369782     -1.91384256649919      2.26673206717564
  H   2.42580470237485     -3.62637666600901      2.28683186171601
  H   -0.03628319129126     -3.17023863121963      2.11696316467702
  H   2.86647117533933     -3.46780067473760     -1.37041535428355
  H   2.54506727522897     -4.55942552804602     -0.05087513387147
  H   5.91832450566906     -3.08504241342498     -1.59693316779051
  H   6.68171355890209     -4.09744092573650     -0.35170489863912
  H   6.67679124310403     -0.07113328577746     -0.32023539515428
