29
Coordinates from ORCA-job 13452optt
  Br  1.23517986715953     -1.62550885958510     -0.22213106708310
  C   2.41214787455553     -0.16624321800688     -0.09002735424481
  C   2.40822254079405      0.84683025408200     -1.05036084616817
  N   1.45513634940601      0.93985723068672     -2.06193810757335
  C   0.06786498897303      1.21482952737316     -1.63121473195495
  C   -0.02135597223896      2.00376108254851     -0.32747576310368
  O   0.84335541807902      3.11863247069818     -0.38718352628790
  C   1.38772308262722      3.49266422938863      0.86889125728227
  C   2.56779283238676      4.46097719582198      0.67128475300544
  O   3.73875681011773      4.08079692588158      1.37146171449957
  C   4.67636877656618      3.28688357770676      0.66270040746102
  C   4.07178458510586      1.95790306441385      0.28506800568491
  C   3.35033748899548      1.85900193202482     -0.88765468324820
  N   4.06469292680471      0.99953092150926      1.21138184664267
  C   3.29183099335394     -0.05637007218256      0.99314661570541
  C   3.35904356958044     -1.10519706252544      1.98628897502639
  N   3.42172863874271     -1.93670487728036      2.77228512012558
  H   1.74022433587417      1.65545787511665     -2.71519152462219
  H   -0.48843125729096      0.28458533618259     -1.51406171408118
  H   -0.39547077581093      1.77664548505053     -2.44121959281997
  H   0.26067732704451      1.35683010471983      0.51116540940810
  H   -1.05809177835844      2.31649457854046     -0.16103604068955
  H   0.60679227648042      3.95137606293087      1.48390935892486
  H   1.75161020630700      2.60685539402387      1.40164986309198
  H   2.30999417835772      5.44771999798841      1.05404540866369
  H   2.76125476406104      4.56156923220180     -0.40174757202740
  H   5.51394675262657      3.14118724612111      1.34083444341444
  H   5.01223763366177      3.81981696608988     -0.23420461903059
  H   3.37064556603769      2.67081739847871     -1.60366603600131
