23
Coordinates from ORCA-job 13454optt
  Br  1.12046599793333      0.20321957069812      0.22108175598213
  C   2.97306124397468      0.19884413898918      0.03611255684419
  C   3.75442555819762      1.33373753490505      0.02662537587607
  N   3.41059340041332      2.63124169897259      0.13839060632987
  C   4.57371895646017      3.28590088688955      0.05876913951645
  C   4.56980014535055      4.77515524160029      0.12788570464466
  O   5.55108810747031      5.42318016766794     -0.13344858876251
  C   3.26346532608436      5.41361942066514      0.54100645245102
  C   2.96333180298320      5.16646962692495      2.00133746002086
  O   3.74676982897391      4.69825561477459      2.77662469062238
  C   5.70439012051875      2.44110559124022     -0.10425343077452
  C   7.13017743682974      2.76358119744609     -0.20059518466334
  O   7.96906656727792      1.90277353978303     -0.34549971045171
  C   5.16815380482516      1.15244183168055     -0.12476907706062
  C   5.67213307067868     -0.15804493273178     -0.24991881769851
  N   4.88950954989052     -1.20475598876022     -0.23563371186170
  N   3.57852475743072     -0.98411652907666     -0.09314273669378
  H   2.43462775676806      5.01360570150992     -0.04671169728585
  H   3.32488407807933      6.49171257367801      0.37751574163892
  H   1.95269016952913      5.47163829566583      2.33013915384629
  H   7.40155728774720      3.82546015134514     -0.13196859738484
  H   6.72861494659710     -0.35602002054211     -0.36516053640574
  H   3.01995008598614     -1.82700531332547     -0.08738654872973
