27
Coordinates from ORCA-job 13469optt
  Br  1.18814673687598      0.00483992293787      0.50095349954367
  C   3.03127358024944      0.16392597466086      0.29692844478020
  C   3.66114771205574      1.34032910308014      0.17320266747585
  N   5.03447142035463      1.44225921158659      0.00247982415637
  C   5.53052375819293      2.81858698487469      0.02492960576316
  C   6.17155609397114      3.11859690387397      1.37407533834968
  O   6.72140551987566      4.42167950372264      1.28541768935004
  C   7.53811096197748      4.80525788967224      2.30029720671173
  N   8.08909658068831      5.92443277886887      2.37939753435526
  C   4.27613836902421      3.65415337237763     -0.21612692848377
  C   3.11439496611399      2.73922143172475      0.14219889214682
  O   1.98585731677965      3.07310520060907      0.34250282909908
  C   5.86546835247238      0.34143810333734     -0.06917765571691
  N   7.12668340564589      0.32381553862264     -0.23031788386109
  N   5.18892400193851     -0.85693685193451      0.05565430118307
  C   3.82791802565095     -1.07754561931983      0.25611790913776
  N   3.28774402140119     -2.21573216317220      0.38651843953939
  H   6.27180292763454      2.95937145424954     -0.76290517703341
  H   6.94937158959207      2.38374717916615      1.59690847383757
  H   5.41095954000409      3.07420717578299      2.16216435698263
  H   7.69321466610534      4.04496984386187      3.06682133037397
  H   7.84357170898025      6.51849622767389      1.58670249541054
  H   4.16879791933088      3.91882008963878     -1.26987884464252
  H   4.25196934641999      4.57118118206568      0.36869106913371
  H   7.53039041043519      1.24684532955083     -0.33313791292832
  H   5.79524745139500     -1.66212623901681     -0.00403457700560
  H   3.96381361683447     -2.97493952849572      0.33661707234111
