25
Coordinates from ORCA-job 13466optt
  Br  1.03651630963725     -0.96081047792216     -0.66486526354982
  C   2.76244745914607     -0.35717902480493     -0.26082564287484
  C   3.11205937203927      0.94541480068632     -0.28959048166924
  N   2.21235185062579      1.94156111006009     -0.71943514477912
  C   1.65545681115174      2.90112163418944      0.22009256153576
  C   2.46815521575680      4.17546590388792      0.38009165758973
  O   3.74352509187171      3.86611029126747      0.93417023986650
  C   4.81475749548844      3.73206426857720      0.09530684102593
  N   5.34753936319475      4.64973060360442     -0.58008908214168
  C   5.31984893081982      2.35150471169909      0.12013778980581
  C   6.58048540805329      1.90571680726244      0.34866977991978
  O   6.61734157190090      0.55767426270420      0.42889369751063
  C   5.34857632982118      0.13400414503582      0.23685515497335
  C   4.50404569705213      1.17798517486075      0.03529887170999
  C   4.94828885248094     -1.24730724759665      0.25943804721536
  N   5.59693475847219     -2.30497341348285      0.45329843328549
  O   3.58178326663627     -1.37662188811053      0.04364580464576
  H   2.47105821678098      2.34849169348711     -1.60866148151914
  H   1.56571257368255      2.40800605023440      1.18925441287797
  H   0.64602026860288      3.17338248132400     -0.10211547189441
  H   2.59396918396657      4.68196549040129     -0.58259633006553
  H   1.97350937730909      4.86037235540361      1.06964450745730
  H   4.87756328562981      5.54146626551108     -0.42116372205906
  H   7.51284184167849      2.42267962113868      0.49516909760637
  H   6.57821146820103     -2.09382561941824      0.61337572352711
