24
Coordinates from ORCA-job 13472optt
  Br  1.02783099637422     -0.31023292390100     -0.26137944546562
  C   2.87102426623900     -0.11644823292816     -0.05051343180001
  C   3.70897611797526     -1.17215992374541     -0.05008748429879
  N   3.35026168540796     -2.49987828362932     -0.19200924440105
  C   4.48091638414000     -3.14875450052851     -0.11090488443676
  C   4.48575911421337     -4.61808078787205     -0.20574068514182
  O   5.49060144226946     -5.28435196964123     -0.13479468306174
  C   5.65192045635895     -2.30467633215594      0.08516378284083
  N   6.95319425121184     -2.77876619491396      0.17846634973413
  C   7.87875740910089     -2.14627207873411      1.10125359726264
  C   8.62827996085638     -1.03417329595538      0.49815721206305
  C   9.21938565033977     -0.11646220912009      0.00350746750206
  C   5.14574577680396     -1.03836929860984      0.11233770448808
  N   5.77237726192058      0.19099635098614      0.22368522390039
  C   5.16597983367647      1.41690456970599      0.25721124061689
  N   5.71195134308805      2.55422159191241      0.35730104912216
  S   3.38341555953567      1.51875827670673      0.14569303771496
  H   3.49036759515145     -5.07044170005369     -0.34391032194766
  H   6.98566177347042     -3.78833586742861      0.18282373221541
  H   8.59764878516083     -2.89572353664440      1.43303043959704
  H   7.36387329996588     -1.77800472632090      1.99706442694835
  H   9.76526380117540      0.67794758330739     -0.44867942983791
  H   6.78626215439423      0.21060131847552      0.19102747430579
  H   6.72554508116986      2.49770217108847      0.43729687207958
