25
Coordinates from ORCA-job 13478optt
  Br  1.75630992743658      0.12952549592900     -2.84547093422198
  C   2.87267014055385      0.45757012908214     -1.37867500679138
  C   3.67420257727036      1.56377419960376     -1.27403526668854
  N   3.14392537378866      2.75503515103784     -1.65229759373708
  C   2.27733284203377      3.18826460016219     -2.45913408887733
  C   1.24537491982585      4.09730293395953     -1.84161946877589
  O   0.72133510105487      5.02766043354602     -2.39759993071191
  C   0.72515392352756      3.64293371843921     -0.49267635586484
  N   1.02257915693058      2.52158515634830      0.03523318984419
  C   0.40731384421660      2.14927835629663      1.22629316956171
  C   0.75749744590322      1.12075615697094      2.02977473418986
  N   1.77809062651037      0.18394032742605      1.94526271632546
  C   2.79215491749463      0.37795503972573      0.98118990358526
  N   2.52452782678814     -0.21606589593674     -0.23770367013741
  C   3.83853179981161      1.20165215323703      1.11984801533035
  C   4.56743870955569      1.63613938365520     -0.07246340641184
  N   5.70129604444087      2.20229999393943     -0.01307862287412
  H   0.00327789084875      4.33864984225289     -0.05062602190008
  H   2.06163960614165     -0.21125487880447      2.82821713215080
  H   1.77443159277938     -0.88800732478251     -0.27808254712100
  H   2.06525987628335      2.81092243411285     -3.46184896831323
  H   4.01365262604280      1.71961492567681      2.05225825091202
  H   5.98672424867207      2.53658823780913     -0.93381006575619
  H   -0.44306210986038      2.73778369438389      1.56454891893327
  H   0.14734109194913      0.98109573592913      2.91349591734993
