28
Coordinates from ORCA-job 13475optt
  Br  1.69721891419898     -1.12817648352301     -1.42795059999282
  C   2.56852347382531      0.19215855646033     -0.40760491668463
  C   2.96062177187206      1.40052789350081     -0.97794116135973
  N   2.47598969393676      1.81204216981594     -2.23321078870109
  C   1.08880889873238      2.31323256568334     -2.04364752411562
  C   1.02063775325692      3.41886642367909     -0.96409405584435
  O   1.25211189931159      4.56058020830818     -1.26240899082804
  C   0.67462340062279      3.01796597823797      0.47517712323223
  N   1.08546270581848      3.90518441212529      1.54656193017753
  C   2.46570927012402      4.39172660033930      1.62541718199083
  C   3.50490506979878      3.36057418661669      2.12334728287604
  C   3.50590507768229      2.14410352279145      1.24566124917708
  N   3.12960233961260      0.98100027606252      1.76859756549585
  C   2.76276207232287     -0.00035079565529      0.95403978047047
  C   3.63397330372775      2.29947166759175     -0.14040428531014
  C   4.24227238531507      3.45884223922038     -0.71800292914550
  N   4.77758046042718      4.33816994300267     -1.22691672196047
  H   3.04246059637603      2.56751376554736     -2.60888924315838
  H   0.45148978475221      1.46712182023168     -1.78161615568914
  H   0.75360500599807      2.73730814800281     -2.98786701150878
  H   1.01893168160660      1.99899295245790      0.65884014880635
  H   -0.41911031385697      2.94700442458052      0.50219825547577
  H   0.46732872477562      4.70356462686287      1.57617258344453
  H   2.80534349936848      4.82370779525078      0.68073513254810
  H   2.45578741686216      5.20547388423924      2.35083254554519
  H   3.27316542880238      3.03852175900665      3.13711143505734
  H   4.48085534287749      3.85332127713713      2.12039436270203
  H   2.52643434185207     -0.95644981757440      1.40646780729934
