23
Coordinates from ORCA-job 13473optt
  Br  1.08812440362548      0.09201494128639     -0.14819235369218
  C   2.94629218884853     -0.10410046068633     -0.00274492704797
  C   3.63956891626886     -1.25802901416969      0.05713239466827
  N   3.30328853305593     -2.59048777821738      0.02253238848925
  C   1.96261801873519     -3.10868463152157      0.03989157928042
  C   1.34843449990164     -3.05182273269440      1.42864998577848
  O   1.96256933421640     -2.71137836553561      2.39491924876091
  C   4.41290161976509     -3.42281463141150      0.29040975663782
  N   4.44349988673507     -4.65262125371508      0.52851054785857
  C   5.66857886665087     -2.55267292523588      0.25367716771026
  C   6.50457612598860     -2.86375747379089     -0.90083429091585
  C   7.17875820791248     -3.10641324619638     -1.85752886527546
  C   5.08265355715343     -1.16410570324924      0.19326447810309
  N   5.75996087477478     -0.09709653806730      0.26302788043855
  O   5.06187582582781      1.07535155238708      0.19511294938833
  C   3.68969276476166      1.15733954534921      0.06712795805539
  O   3.20902980378356      2.24747479983348      0.02408238937241
  H   1.97260519189536     -4.14635444970556     -0.30282711591245
  H   1.33004460416989     -2.56258586884439     -0.65725651073162
  H   0.28614900508223     -3.35159200363564      1.48451656177590
  H   3.53367648618366     -5.10456375048657      0.55341975200098
  H   6.22832704532976     -2.70446032360281      1.17782121334391
  H   7.78677423933361     -3.32563968808994     -2.70271218808700
