25
Coordinates from ORCA-job 13487optt
  Br  1.79544348304792     -1.10624461627753     -1.64805248521587
  C   3.37931814196859     -0.48131622647223     -0.89265146702467
  C   3.56391057543988      0.62015583085078     -0.17273179036229
  N   2.83484905335600      1.68690277973879      0.29253783486801
  C   1.52041693162266      2.08890157987508     -0.15201410361253
  C   0.41250521461874      1.57347811748379      0.74236227608117
  O   0.57377344996710      2.19910615676151      2.00576639904789
  C   -0.08345576417840      1.64557801620284      3.05611193118271
  N   -0.02580820542753      2.06894078240280      4.23063260705246
  C   3.70600777027738      2.49188947464457      1.08187642493432
  N   3.44007366293613      3.54603451387273      1.71174185510949
  N   4.99935657856181      1.90359835354183      1.07149861682507
  C   4.89126183143396      0.85684232838579      0.36837915625083
  O   5.88802143677624     -0.00392411263944      0.12112063067143
  C   5.67307042377365     -1.12743216588203     -0.63924219866339
  N   6.56096725270091     -1.96026265094048     -0.88720128771332
  O   4.42649969382666     -1.32483450434347     -1.14122817603680
  H   1.36487115298463      1.73368878938622     -1.17044860258933
  H   1.49148120990869      3.18013727267025     -0.17415339130022
  H   0.48437278658944      0.48678769821884      0.84306835414405
  H   -0.56196146685852      1.82868231223810      0.31560517133554
  H   -0.68640361920172      0.77319415126493      2.80068217796504
  H   0.58382531096587      2.88430149908694      4.30605093709203
  H   2.45172358848030      3.77967911541448      1.66639251933313
  H   7.44287950642958     -1.69588449548509     -0.45910338937475
