24
Coordinates from ORCA-job 13485optt
  Br  1.21703774275866     -0.25272347508796      0.60656697171745
  C   3.02037432867265     -0.09652317844699      0.11306971658143
  C   3.69665924043250      1.04126663218332     -0.02056800008285
  N   3.34148673820943      2.37832483996115      0.03546344848918
  C   2.00179325168497      2.89063437946844     -0.10945345674172
  C   1.25022108891407      3.01829649601036      1.20811472603767
  O   0.14258848125659      3.46056306836054      1.26486855846955
  C   4.47897019749925      3.18618583794912     -0.02347456698484
  N   4.60100861074111      4.43969795540343      0.00114219643269
  C   5.65676393188074      2.25795596301878     -0.12921652081635
  N   6.88359755763171      2.53118650870954     -0.14617634088156
  N   5.09130784608620      0.99782227739491     -0.19303805246627
  N   5.81633820799937     -0.15807136452278     -0.07103154055861
  C   5.13349268901871     -1.23292132466792      0.01271295971360
  N   3.74138107759335     -1.31312835384038      0.08514776555332
  C   5.82075204871280     -2.48944343099014      0.05925547197149
  C   6.34381907996144     -3.56521123385302      0.07160638252686
  H   1.42317308224117      2.25575094067526     -0.78033017836566
  H   2.05271285283052      3.87835346670390     -0.57216189977376
  H   1.80083906933979      2.68014295962495      2.10715840508658
  H   3.72780472990940      4.94861810335273      0.10884756480773
  H   6.98942374936715      3.54346488108969     -0.08039404458914
  H   3.32120427347082     -2.08679618540632     -0.41244987232936
  H   6.82925012378753     -4.51244576309063      0.08934030620259
