26
Coordinates from ORCA-job 13488optt
  Br  1.38315152417895      0.15744577010630     -1.07788303609495
  C   3.20837541552379      0.15674944119063     -0.55467349657874
  C   3.87595841009844     -1.07285286277873     -0.44317783991819
  N   3.20190708679851     -2.28585837504026     -0.71538349937968
  C   2.42843386751777     -2.90604528374099      0.35118660614316
  C   3.21412374761664     -4.05084233374594      0.97719531753099
  O   4.52014959190801     -3.56774633452886      1.26863081411457
  C   5.42865945594618     -3.59480714455462      0.25345042348573
  N   5.77606497192081     -4.55379257016808     -0.47065090169340
  C   6.09451602152032     -2.24283915581291      0.07441786355027
  O   7.28748487709504     -2.13793621487317      0.06217379522384
  C   5.21501246048981     -1.02262746233612     -0.06140007241538
  C   5.80205289667987      0.21303247117133      0.18884353485362
  C   5.03356798897771      1.35271225790989      0.05579575806993
  N   3.75240054066090      1.32177255648758     -0.31195217095558
  C   3.08350472325404     -2.74369363844501     -2.01799537868107
  N   3.59984167930718     -2.28608730518923     -3.07360161785163
  H   1.47213492937643     -3.26194434386910     -0.03807553605711
  H   2.21747661837705     -2.14708953265801      1.10523633884992
  H   3.26683416017206     -4.90607056762565      0.29926083328564
  H   2.77224668630214     -4.37832934385970      1.91673931456216
  H   5.27755511314517     -5.41723280919849     -0.25703578602196
  H   6.84313546705858      0.25888339194366      0.47672360525249
  H   5.45047219791812      2.33440004481236      0.24464330799718
  H   2.44951328038169     -3.62963540712734     -2.07768880066379
  H   4.17642628777475     -1.46056524806950     -2.91177937660802
