22
Coordinates from ORCA-job 13483optt
  Br  2.94257289796873     -1.17187888963541      2.47758753818362
  C   3.37585557947324     -0.29885291153790      0.88283407715989
  C   2.76339374508176      0.83059297132407      0.49984938082545
  N   1.85863258768292      1.61574219208940      1.18090489196147
  C   0.69662743911978      1.81193091162657      0.73003908717475
  C   -0.05033294004813      0.84564688543311     -0.17673018303709
  O   0.48940364734229     -0.07206183651643     -0.71677348110023
  C   0.18906636330702      3.20622324654420      0.76494569404281
  N   0.94950391049279      4.11347262649855      0.31672179433569
  C   2.32314405981293      3.88980638131112     -0.04344472737950
  N   3.19442488420540      4.72460631840253      0.31885836390671
  C   2.82175476201018      2.82050480162388     -0.98712938644610
  C   3.13600757248084      1.52961152558666     -0.75057514200906
  N   3.91215362288613      0.86563842137384     -1.70382884092945
  C   4.45468737019385     -0.23377472103644     -1.37210923603779
  C   4.33222318355984     -0.91342633457031     -0.03696809219490
  O   4.96314850723626     -1.91698121771370      0.19178851196801
  H   -1.12866413757594      1.04899459615795     -0.30229224647408
  H   -0.83966943491945      3.45629964051168      1.01313834971881
  H   2.77505160008886      5.45528742458164      0.89634731714859
  H   3.16730196238643      3.21129516229657     -1.93775359374622
  H   5.07571281721426     -0.76067719435161     -2.09241007707137
