20
Coordinates from ORCA-job 13482optt
  Br  1.35783655361709      0.21150990555300      0.11719125403231
  C   3.16570113675027     -0.17337080690696      0.12966663772893
  C   3.69839369715624     -1.39897009877474     -0.09291167873542
  N   3.07449512836241     -2.57678262844245     -0.36583216520305
  C   4.05760072163139     -3.44360233929761     -0.48383078000883
  C   5.35253522946758     -2.86063157655076     -0.29884382442799
  O   6.51573352006678     -3.55993411742309     -0.43457803430536
  C   7.26282005978721     -3.78311243342428      0.68421762891361
  N   6.97986432038318     -3.60402812664477      1.88854182416985
  C   8.55659114967141     -4.32739869610140      0.30168310115913
  N   9.57091045459016     -4.76282631846627      0.00185554646006
  C   5.13794795193332     -1.52830418478143     -0.04546448333297
  C   5.86004955765067     -0.32561717593549      0.20929505408044
  C   7.35671470937154     -0.22747881293485      0.24570120103853
  O   8.05809793034350     -1.17519163727992      0.05097278181002
  N   5.29501410646794      0.81912182512134      0.41241143916302
  O   3.92595515320703      0.88736276790416      0.38265182041733
  H   3.87606751029735     -4.48645886943596     -0.70690069242339
  H   6.04354706308982     -3.22063515847246      2.01740451811997
  H   7.74412404615502      0.78134848229395      0.45476885134380
