25
Coordinates from ORCA-job 13489optt
  Br  1.30691050293142      0.05006160612991     -0.90395650017263
  C   3.12158586103603      0.04178787045447     -0.38466827732247
  C   3.81084465861629     -1.17119716562534     -0.29692739784364
  N   3.26125255384387     -2.40439943839532     -0.56799362414243
  C   3.68345197851838     -3.55331299067932      0.22568437256668
  C   5.16263426781803     -3.51550439649110      0.57989599911825
  O   5.65187313771307     -4.33777448575363      1.29952401883745
  C   5.95898302456512     -2.38387623127646     -0.06314673477138
  N   6.18698726732930     -2.72842683639130     -1.45716065442410
  C   7.35184433702683     -3.24561594360144     -1.93782563840407
  O   7.52954471338865     -3.54615601563111     -3.08955183250365
  C   5.17980051310091     -1.09731398214401      0.02517469633142
  N   5.80620325303850      0.02413640571331      0.31679576337280
  C   5.11517867543005      1.16184482764899      0.26751741220100
  C   5.86762320801086      2.40061244126922      0.60347473567110
  O   5.38022413864521      3.49755632000705      0.59221967692195
  C   3.77513912289670      1.22146556712709     -0.09827626906551
  H   2.27494292207554     -2.38565053371051     -0.78419297466700
  H   3.49470725975864     -4.47253484997744     -0.32937189770669
  H   3.14063036666887     -3.61646889159812      1.17410621900779
  H   6.91743764018604     -2.28328922086377      0.44298659103084
  H   5.43314458774650     -2.60570778283901     -2.12077567315325
  H   8.12318193342752     -3.35669645211925     -1.15806850411810
  H   6.92477357789173      2.22236208468192      0.86542733085902
  H   3.27610049833589      2.18009809406519     -0.14489083762341
