22
Coordinates from ORCA-job 13492optt
  Br  2.77548579322463     -0.65266652856801      1.85056825762129
  C   3.28979458251298      0.52613486531799      0.48576894172027
  C   2.61747456650825      1.66684509322540      0.25024946103432
  N   1.50549472592861      2.12442325899837      0.95911784935547
  C   0.36063138570915      1.70054413571898      0.64454340395782
  C   -0.83961866029618      2.35438070192214      1.27945902802330
  O   -1.80414719709579      1.72610871113677      1.61177922998563
  C   -0.81436648154467      3.86550500040696      1.46821201111075
  N   -0.25428231001650      4.70170092707247      0.71009561668066
  C   0.44661455312532      4.21765269477842     -0.43125710899368
  O   -0.10000338029434      3.61082380290987     -1.32065383441177
  N   1.77118537350024      4.51056642927161     -0.36471935174321
  C   2.74811859937629      3.79769421907477     -1.10488981077199
  C   3.13223718556296      2.54556801658713     -0.79938204238574
  N   4.12361885735467      1.90325449415235     -1.53798140811541
  N   4.76070910216482      0.77652563227291     -1.23291508331512
  N   4.39811699997870      0.10376228826550     -0.24132829046789
  H   0.16738873903464      0.91925498791429     -0.09342760503652
  H   -1.40721759749490      4.21696060708941      2.31156284841505
  H   2.06497606729073      4.98479965303208      0.47704459405217
  H   3.20738577168552      4.30667930003456     -1.94371885317354
  H   4.51340332378484      2.36148170938600     -2.34712785354187
