26
Coordinates from ORCA-job 13499optt
  Br  3.62470717303662     -0.26217420504593     -1.42197328639739
  C   3.43746236117608     -2.18963699790214     -1.53978838155353
  C   4.58237497498524     -2.85107490338992     -1.97503530935421
  N   5.78462456891797     -2.44696954235185     -1.45142239435289
  C   5.69820997709758     -2.34757593529501     -0.04003980109069
  C   4.54029403295906     -2.43059349572214      0.63163352202155
  O   4.51148476598791     -2.57299870949309      2.00573985415292
  C   4.37011614703997     -3.88516391511945      2.44662457717482
  N   3.55671833633200     -4.23363727677357      3.32233585826035
  N   5.26353477520393     -4.78852225176360      1.82536129715586
  C   4.85646864039305     -5.37382937918990      0.63824313455271
  N   5.67216726285054     -5.51540445666633     -0.31584693460195
  C   5.20227541900216     -6.07511081559319     -1.55682897347420
  C   5.39962561775179     -5.05779561989925     -2.66826584553900
  O   4.41980733483693     -4.00756528552198     -2.59020392002402
  C   3.24209407783596     -2.68695766877282     -0.11554055821648
  O   2.33337660640557     -3.27383385586548      0.39191043027810
  H   6.66967297742117     -2.76350951379392     -1.81903415704747
  H   6.64631655097724     -2.27249091671756      0.47373274170232
  H   2.94474030939218     -3.45499827702402      3.56239053164496
  H   6.20575346995778     -4.42433147226334      1.73573696982538
  H   3.80172467506231     -5.66209366014467      0.61617832124016
  H   5.80241882276734     -6.95234584491123     -1.81434888367563
  H   4.14796611018768     -6.37688762845282     -1.52925997140320
  H   5.22862140859147     -5.50969039594924     -3.64318087454886
  H   6.41244360383042     -4.65880797637753     -2.63411794672962
