18
Coordinates from ORCA-job 13491optt
  Br  1.36117625270161     -0.09486895846660      0.10891399442268
  C   3.21328424409280     -0.19942419692110      0.09296827469432
  C   3.87300880926565     -1.39160282572436      0.03440379734502
  N   3.13934728385843     -2.55892349092287     -0.00694783375082
  C   3.78407263991599     -3.65632632291436     -0.05744464974411
  C   2.98126411527113     -4.93344807482921     -0.06827838454253
  O   1.99185197866823     -5.07652732254503     -0.71899857253123
  C   3.45965066652796     -5.99192747035738      0.84391948551186
  N   3.78846593008550     -6.77989526368783      1.60715747485152
  C   5.27248785507628     -3.75526653887052     -0.14869748400700
  O   5.80308886956007     -4.80988861931220     -0.37255430179356
  N   5.98582717873972     -2.56340223228719     -0.00001591273190
  C   5.31520732292627     -1.47450661992017      0.06804613374301
  S   6.28690998422926     -0.02694003134828      0.26865420937691
  C   5.11627486619243      1.28163786802406      0.11473980005974
  N   5.40108100079780      2.48981423485174      0.02131473203831
  O   3.75922954723407      1.00052603424595      0.14155187496323
  H   6.40177145485668      2.66596983098541      0.00326736209454
