23
Coordinates from ORCA-job 13504optt
  Br  1.15423116763969     -1.24035375419249     -0.19494092703228
  C   2.96301355220604     -0.75116851426868     -0.09698483810342
  C   3.86768756814540     -0.90731507825959     -1.10313879026947
  N   5.08266538274747     -0.18004083925291     -0.86596032349038
  C   5.83217654137685     -0.88670230011033      0.14072855831228
  C   5.07643449452135     -1.40977396843043      1.09372803831584
  O   5.40910420436332     -2.57286629420113      1.76636478656266
  C   4.90287900024315     -3.61154207557988      0.96540883814428
  N   3.75930374033871     -4.09826605809481      1.07439952961308
  S   6.09897315980800     -4.12027487884818     -0.24251821394161
  C   5.13971448110636     -5.00579173347588     -1.52756252419548
  O   5.55981007150462     -6.06404996887852     -1.89014620069702
  N   4.01099828989122     -4.44212364955848     -2.09166224648296
  C   3.41777799649526     -3.21466574379183     -1.80305619157611
  C   4.06999841221652     -2.05278890015870     -1.97225100579279
  C   3.61254658538162     -0.97816473322040      1.22434320567566
  O   3.02360313328183     -1.11753541431872      2.26228239613231
  H   4.88692333995730      0.78462068690091     -0.62035385588917
  H   6.88235366205072     -1.08960195005743     -0.01624974657434
  H   3.22979622754693     -3.63492983729353      1.81699704097014
  H   3.42730590273552     -5.16141303305403     -2.50099515609527
  H   2.42816875471155     -3.26990994870018     -1.36463527795990
  H   5.01553433173050     -2.05134201315472     -2.50179709562604
