23
Coordinates from ORCA-job 13500optt
  Br  4.44037354971529     -2.30711023449139     -2.49744501081477
  C   5.55102452451707     -2.16948409631361     -0.99926371742309
  C   5.87456755893810     -3.25142667560574     -0.18956475623312
  N   6.47070190125766     -2.96103010069473      1.00047930054771
  C   6.54608916066396     -1.56580208083246      1.40338119356799
  C   7.04468003677478     -0.90205095556600      0.14764034075907
  O   8.33779401958651     -0.45054922309576      0.06707584053006
  C   9.26824833937845     -1.28210199624963     -0.56072280291997
  N   10.47717869219468     -0.99671993794964     -0.67907139530140
  N   8.72440285517723     -2.49796384419072     -0.94122809648114
  C   9.34168471213618     -3.66187645915190     -1.34565972652010
  N   8.77910580738752     -4.79594550774312     -1.22823753311031
  C   7.65825950315523     -5.01233092086771     -0.43473166850484
  O   7.74331759804968     -5.56238210650879      0.63526564873068
  C   6.22689201188774     -4.55591184829754     -0.85257268653284
  O   5.56350418473000     -5.15990048758878     -1.64083568812859
  N   6.37370027838748     -1.07819298791693     -0.92464679039111
  H   7.11097652601994     -3.63463697597081      1.40131344615092
  H   7.20857226939302     -1.45495277033974      2.25560042553516
  H   5.54412181173014     -1.19886692131178      1.63897377210581
  H   10.69813149797981     -0.08849890821603     -0.28302985376154
  H   7.73040134912816     -2.52058228946409     -1.06938118203089
  H   10.32727181181128     -3.56768267163308     -1.79133905977370
