24
Coordinates from ORCA-job 13505optt
  Br  6.64646014423225      0.94735442463759      3.34896198798059
  C   5.95888571310854     -0.63524526583955      2.62342269670993
  C   5.80325800360142     -1.77472923920126      3.29389040477733
  N   5.34601725031982     -2.87204703220067      2.51259918192901
  C   5.97032747896012     -2.95070815982558      1.28061206678173
  C   6.37115961564554     -4.28907166558571      0.79865981309161
  O   6.05765232999407     -5.28639135997832      1.39267114482552
  C   6.33857202681374     -1.78809788454387      0.70877919109351
  O   5.78647398711445     -0.62994963747059      1.26157616101677
  C   7.66979551843774     -1.63330262527960      0.05658587837795
  N   8.07586400239384     -2.02249192658037     -1.07124962850376
  N   8.52988195905039     -0.94349964204853      0.95717729353516
  C   8.87923888861632     -1.44989085489313      2.06132067273019
  C   8.65862506526979     -2.88343560937259      2.46782520578513
  N   8.19106150804764     -3.35213218689286      3.54108633426367
  C   7.62217430678950     -2.67297683267825      4.61936911049486
  C   6.45326340696055     -2.02259284881440      4.59622940920358
  H   5.26060122737351     -3.76477837240664      2.98285720411270
  H   6.96021557877561     -4.31750694614304     -0.13106626207206
  H   7.30572583151185     -2.40540964434429     -1.61581402628886
  H   9.43658491297793     -0.82185910198257      2.75754123681456
  H   8.98135430612137     -3.60862163524638      1.71607018698362
  H   8.12073083018585     -2.86988156604500      5.56223475101364
  H   6.03207610769803     -1.64273438726436      5.51665998534361
