24
Coordinates from ORCA-job 13501optt
  Br  1.25100521651291     -1.13627778845355     -0.19218916036025
  C   2.98281466103633     -0.42613429941010     -0.11307270744413
  C   3.12838261702049      0.90578024257532     -0.10972146233117
  N   2.18685458861132      1.92279590319525     -0.26465668845879
  C   2.13116016232765      2.63341076799906      0.78194374435141
  C   2.60700641368864      4.01421097387051      0.55701065124114
  O   1.90278735617736      5.07060956624548      0.95668582081093
  C   2.47316485158751      6.34275947405982      0.91744083626971
  N   1.81397696443313      7.36064574989603      1.19232160554309
  N   3.78763298977291      4.05825502460959      0.09748964247933
  C   4.59028975228785      2.95732732656841     -0.33883560403679
  N   5.64605247546017      3.20798393201267     -0.98132409963385
  N   4.37568350285747      1.55285029267763     -0.01353297348193
  C   5.49885890755370      0.73325868789175      0.01816923721878
  C   5.40871204128983     -0.60128538540410      0.02706762689429
  C   4.13792674781366     -1.32307319281838     -0.04410693473430
  N   3.98466650922268     -2.58936578329121     -0.04440037952296
  H   2.29061680890096      2.23766657485232      1.79222966300054
  H   3.52013330303126      6.34611495186612      0.64060872338451
  H   0.84395879586005      7.14246073497401      1.42264600067862
  H   5.76475146206730      4.21443486016910     -1.06170524898682
  H   6.43932409779546      1.25876644997103      0.04466770101197
  H   6.31948172803619     -1.18170560189078      0.09063100844217
  H   4.88675804665515     -3.05948946216601      0.00563299766452
