24
Coordinates from ORCA-job 13511optt
  Br  1.08178647017864      0.04295124721159      0.21592378972218
  C   2.93803643631607      0.16421020898250      0.03172159760286
  C   3.60094753408991      1.33361365581922      0.15388882058001
  N   4.96189501264800      1.40937152536741     -0.04161590537641
  C   5.73064161398704      2.59067549305277      0.33695449894992
  C   5.55403232471419      3.83995073235648     -0.53580359343046
  O   6.48900339716826      4.34458641248225     -1.07952430664313
  C   4.15625761562180      4.49027816995134     -0.54651370037543
  O   3.15528743078377      3.48517262860718     -0.70598923755501
  C   2.96270257858678      2.66000477918182      0.38000517593115
  N   2.34532472483776      2.95295149691220      1.42619818167612
  C   4.01437008326171      5.49193614910851     -1.58918926794607
  C   3.91882255182800      6.33206555370684     -2.43279028117695
  N   5.69802356143991      0.33488371100664     -0.34871458913492
  C   5.10487985727117     -0.79389298112779     -0.49241186557746
  C   3.67157438427823     -1.04771061765439     -0.31745831533573
  N   3.09880533725326     -2.17840782279276     -0.45224219367534
  H   6.77693019816220      2.30855799360428      0.27718118532048
  H   5.49177234556951      2.86450560537428      1.37137100973529
  H   4.03397226752518      4.97203251353344      0.43477886297892
  H   1.96335918288103      3.89955349690180      1.38435579771493
  H   3.83077877678277      7.07818800916621     -3.18666274498592
  H   5.74665528078876     -1.62715971529495     -0.75767375071415
  H   3.77314103402598     -2.89831824545690     -0.70778916828489
