24
Coordinates from ORCA-job 13517optt
  Br  1.52142795423334      0.33550580969403     -1.75733808781793
  C   3.11678993735555      0.09888295569289     -0.82547789876723
  C   3.70185710888765     -1.10286426202618     -0.64848165406481
  N   3.06574718466592     -2.28089970872721     -1.07805165546493
  C   2.10035218368978     -2.94896892849491     -0.17828513709407
  C   2.79800375001866     -4.05844201584502      0.64527314673489
  O   4.01368285753282     -3.49951149725114      1.12775342461278
  C   5.05130068865739     -3.60759661079590      0.26771877237461
  O   5.26182803987108     -4.57621575379264     -0.40245172783578
  C   5.85480073827939     -2.33705765578049      0.20970402259605
  C   4.99448569929668     -1.10131487668027      0.05030735504963
  N   5.52008802424235     -0.05384706053734      0.56222398521724
  O   4.87256813956252      1.13946942021314      0.43646146598515
  C   3.71525204253760      1.32012760368718     -0.27226269758783
  O   3.27938132847601      2.42439040546364     -0.37441059690334
  C   1.45831479925379     -2.00382465081273      0.73436377593067
  C   0.94805193493867     -1.27268179878987      1.53128032142756
  H   3.67122224761747     -2.94445467726082     -1.54215829171142
  H   1.32867530271306     -3.41141828322003     -0.79900197899049
  H   3.01266244582218     -4.93068319709023      0.02894376354830
  H   2.19452349175005     -4.34487176051488      1.50206259468125
  H   6.55599767688213     -2.42843114660517     -0.61921426653452
  H   6.43076695468767     -2.21983240361117      1.12823290816483
  H   0.49121946902819     -0.60545990691485      2.22380845644939
