27
Coordinates from ORCA-job 13522optt
  Br  1.79599842910111     -2.43364305559413     -1.25061762267112
  C   3.42720200949035     -2.01183708899369     -0.43367491886323
  C   4.54970532574593     -1.84439363767441     -1.17846080237488
  N   5.71850654891240     -1.48575802488344     -0.56654136659254
  C   5.89573654817615     -1.72699888010351      0.76529958841352
  C   4.86128474203288     -2.13903278435616      1.52672477981373
  O   5.11256958503035     -2.73433414891302      2.72315565011863
  C   4.78966643974688     -4.13203973851266      2.66765689246596
  O   5.39020289220221     -4.77201213140321      1.58197072247386
  C   4.58929167213632     -5.04175633220161      0.43320635182535
  C   5.38657899909846     -4.67661527239778     -0.82794878286989
  N   4.56574394467163     -4.56165283229446     -2.02794483189683
  C   4.38192879830937     -3.53868955844318     -2.92398965988487
  O   3.97469255814426     -3.73924512852739     -4.04395365626253
  N   4.67706980142922     -2.20991995698486     -2.53088633670535
  C   3.48448927822794     -2.11657612612626      1.02611529347231
  O   2.51785376059897     -2.35586868779358      1.72646180445541
  H   6.52003906037523     -1.36268813489395     -1.16546302530061
  H   6.90479649831340     -1.68655193133751      1.14885878726472
  H   3.70371373642557     -4.24064905636624      2.63727239408149
  H   5.20936447445784     -4.53882207867032      3.58344522637441
  H   3.64904999819129     -4.48934855877393      0.45840991385055
  H   4.34199011414766     -6.10738885001661      0.42334679738306
  H   6.15199931784382     -5.43694694671229     -0.99856070051743
  H   5.92006813278983     -3.75356911273724     -0.64490595222619
  H   4.30243784705769     -5.43136672549033     -2.46653153642602
  H   4.28501948734317     -1.58029521979820     -3.22044500940152
