22
Coordinates from ORCA-job 13528optt
  Br  1.01918949615155     -0.03797733372409     -0.16392610303589
  C   2.86508063279733     -0.17996512632501     -0.04139780546586
  C   3.54609003498523     -1.37149758295708     -0.03215972194887
  N   2.87842673974180     -2.53468878234112     -0.10228870075770
  C   3.57593846152924     -3.63102790566987     -0.09745888192375
  C   2.83052789076215     -4.93564962944820     -0.16930296170862
  O   1.63388659101280     -4.99129435572306     -0.20905287637522
  C   5.03932249950191     -3.69343241583519     -0.02506893286662
  O   5.65998527682148     -4.75168457133054     -0.02950055283933
  C   5.75188146946512     -2.40966136470735      0.05783188042061
  N   7.10525658190381     -2.56745533565040      0.12446020227941
  C   8.12739932649170     -1.63384089971047      0.24544479929740
  N   9.36064247991019     -1.90380195831254      0.30383606559659
  C   4.99050689780486     -1.26587172887316      0.05380047597894
  N   5.58413207102609     -0.01003372796799      0.12664791867779
  N   4.92612154098150      1.04466627103716      0.12057516017244
  N   3.56224488989453      0.96346894543724      0.03507491568103
  H   3.46377909889321     -5.83427635394550     -0.18023963379084
  H   7.36449668655331     -3.55072259296738      0.09449530148162
  H   7.79361276556403     -0.60505583457569      0.28978738355248
  H   9.54260414157141     -2.90723530993049      0.24991626892002
  H   3.10287442663670      1.86203759352078      0.03452579865438
