25
Coordinates from ORCA-job 13520optt
  Br  1.22442260917273     -0.19087884102407      1.58616892282599
  C   2.92885980458476     -0.35630922953465      0.84879834722225
  C   3.49995435793707     -1.48217458556596      0.41408038103648
  N   2.86620557434914     -2.73442563877781      0.30109090040361
  C   1.53352387735974     -2.86175862441367     -0.27613638287889
  C   1.37845471484501     -1.98478284710847     -1.49916934967398
  O   0.32348522307185     -1.56527074534472     -1.86967683147717
  C   3.56990134765003     -3.88953247151146      0.59796895117766
  O   3.07694457724944     -4.98637916194947      0.51848896692983
  C   5.01378932835842     -3.63149860632526      0.94687287457634
  C   5.60148923890604     -2.66123827792607     -0.06861896649668
  N   4.83157446657046     -1.42462123572419     -0.03632691441032
  C   5.42380176539507     -0.23330035611000     -0.40881246302546
  N   6.51077585696526     -0.07649244193147     -1.03317112855397
  C   4.72131818741008      1.02667662858315      0.06810305458761
  O   5.13777904140673      2.11923480292056     -0.09269427032745
  O   3.56954796773807      0.84413196064967      0.78788314586687
  H   0.73548159441061     -2.65280503467137      0.43269939457859
  H   1.43569201858159     -3.90341722410496     -0.59256889459923
  H   2.31338570206300     -1.78288617734956     -2.06174320219592
  H   5.53837498365986     -4.58295232140086      0.93968525893372
  H   5.07817366256766     -3.19789022914200      1.94793767290159
  H   5.59629997959014     -3.10193039187659     -1.07069766907385
  H   6.63287423916978     -2.41963457878145      0.19223360013816
  H   6.93188988098740     -0.95386437157929     -1.32939539846580
