28
Coordinates from ORCA-job 13525optt
  Br  1.14051005957126      0.13201565481551     -1.83075958746887
  C   1.91616119271603      0.88773383022076     -0.24252459083185
  C   2.61528614497581      2.04300579252762     -0.32422845259078
  N   2.92241964145448      2.73780948722099     -1.47220318025303
  C   2.79085596684903      4.18354810389227     -1.58302010997223
  C   1.38250090409454      4.59050727758408     -1.98123643450294
  O   1.15976313661401      5.24845712778355     -2.96293377483357
  C   0.22507806800950      4.06986860865502     -1.14594970307150
  O   0.58503910142632      3.97710582688251      0.21445895649816
  C   -0.50400282918324      3.58736248905186      1.02152078676966
  C   0.01425403857035      3.01627331810943      2.31820218615029
  O   0.40518399787927      1.65151656609454      2.13384329250361
  C   1.66198751536124      1.27561039484229      1.92022637304964
  N   2.72412069634100      2.11434587732208      2.18556956193872
  C   3.25613994461319      2.60701539649161      0.95650198524604
  O   4.10017443420683      3.45313231865527      0.95490433276543
  C   1.98196181826513      0.23962001656912      1.07317924025775
  H   2.65711194784648      2.23909494915173     -2.31099030031941
  H   3.46949205186007      4.55773603568612     -2.34763194346893
  H   3.05388706457955      4.64322267332939     -0.63302843172363
  H   -0.05012227189078      3.07573500527980     -1.52893936642487
  H   -0.62107179196518      4.74769163471876     -1.29199774014988
  H   -1.14886436846052      4.45057380379086      1.22600819192731
  H   -1.09938927287818      2.81884257802369      0.51553507022541
  H   -0.77954858289921      2.99071241817253      3.06220747694341
  H   0.83583635268421      3.62597635093731      2.69342998938553
  H   2.79472406895582      2.76527316712066      2.95974278550479
  H   2.94951097040286     -0.20678670292959      1.27911338644573
