18
Coordinates from ORCA-job 13537optt
  Br  2.16224393427875     -1.99992212130614     -0.11679177245094
  C   3.42968562700186     -0.64389142623457     -0.07104590064411
  C   3.08923576072443      0.68205436921339     -0.03314792825183
  N   1.74743367038994      0.92576590409566      0.09821468153698
  C   1.11452607059790      2.01310336873570      0.27430673413854
  C   -0.38353082593376      1.90094783782355      0.51088492536394
  O   -0.94181338038227      0.84574105359453      0.53444369069985
  C   1.66029335068687      3.40588054111257      0.23449749055031
  O   1.14552208869620      4.31496010343635      0.82350243609083
  C   2.84999941491778      3.59609717739979     -0.70547291164296
  O   2.76688287599937      4.28442900359386     -1.67703674888991
  N   4.02514923032290      2.94505334175567     -0.33444708439330
  C   4.13665277368891      1.71295835230651     -0.06476710311269
  S   5.79719979738289      1.26936278902334      0.37252892394005
  C   5.82187405665977     -0.47657821238968      0.24281861778617
  O   6.80699670649808     -1.10621852644172      0.39822902480922
  O   4.65606823802838     -1.15059663688079     -0.09116941282705
  H   -0.90841938955802      2.85785308116196      0.65345233729691
