26
Coordinates from ORCA-job 13533optt
  Br  1.74375361734767      0.05903243473659      2.95969901632365
  C   2.84389267193768      0.56129462357991      1.51778480002456
  C   3.55357053067706      1.72171278350956      1.56085574935779
  N   3.28900246502395      2.77744254887296      2.44603570374275
  C   2.00119273366320      3.41499935794108      2.09364492464160
  C   1.87285207412282      3.59640305720719      0.57144309520856
  O   2.29310561242482      4.55399987438413     -0.01916710552388
  C   1.16203587781473      2.48649783189432     -0.24796216089193
  O   0.29089173497423      1.84423148108318      0.26445650664701
  C   1.52934166430997      2.34376923727112     -1.73746015701584
  O   1.43280842141029      1.01568664764851     -2.20032326023573
  C   2.62334501539906      0.23506634292840     -2.16881166818784
  C   3.26913278377162      0.34219535093667     -0.81605619632232
  N   4.23280492528037      1.30597978444295     -0.68323014366050
  C   4.48291206699114      2.02742184003873      0.47063290080520
  O   5.32746543839489      2.89983976310146      0.51249261929402
  C   2.68267942943222     -0.15619262208325      0.29572497325421
  H   4.04498280747324      3.45239544703420      2.38292316064899
  H   1.95972027555122      4.39736564196489      2.55955911831373
  H   1.17900206822954      2.80093397512662      2.45813824967691
  H   2.50315620344077      2.79596748719117     -1.93565629704721
  H   0.78385405980753      2.92528376345108     -2.28607710604982
  H   2.31123616936737     -0.78376805395023     -2.38640611752698
  H   3.31164982395059      0.57133850744822     -2.95364233985978
  H   4.72302935114060      1.64464211052925     -1.50156578990685
  H   1.90058217806338     -0.89553921628874      0.20996752428966
