20
Coordinates from ORCA-job 13544optt
  Br  1.04651626136226     -0.04917940398933      0.21253987490515
  C   2.90459408513569     -0.11662781804499      0.11049491084418
  C   3.59031126751580     -1.29976076558094      0.08691867775461
  N   2.94000580343416     -2.50332346639291      0.11453550796034
  C   3.68343624767598     -3.54681053222180      0.09190205754264
  C   3.00798588221596     -4.90229383457857      0.11001010193090
  O   1.81649617695172     -5.01071241019504      0.10611779580133
  C   5.18509677444484     -3.51563050759692      0.04756067729949
  O   5.80795216617770     -4.55018440481092      0.04277654706380
  N   5.79784157539077     -2.26700827267213      0.00988799985844
  C   5.02275873643670     -1.23931556981056      0.02882070363604
  N   5.63723816709231      0.02599856931498     -0.01565251595985
  N   4.97181691600031      1.07391464207091     -0.00197298518668
  N   3.60505027029913      1.03952610879840      0.05669146706467
  C   3.00977247012928      2.37129716943324      0.08238790607216
  C   2.49601208070586      2.71908463824797      1.41139587941005
  N   2.10017957702525      2.99672422837072      2.44814777235100
  H   3.68739860133817     -5.76500461583626      0.12364696259402
  H   2.20456376939132      2.43634567494118     -0.64784516681309
  H   3.80597317127673      3.05996057055297     -0.19236417412920
