24
Coordinates from ORCA-job 13549optt
  Br  3.69131268682577      0.34473514781334      1.79540487079138
  C   4.73318879914838     -1.24744501164188      1.58540070344161
  C   6.09626607726969     -1.08434359719832      1.59195773049018
  N   6.67086314029249      0.01957551714122      0.91017680709595
  C   6.26737080486522     -0.18371351107822     -0.30662498315139
  C   7.10465478698240      0.39208533461961     -1.42409658263925
  O   7.99980046349300     -0.67683569020141     -1.79238852311293
  C   9.01494105707226     -0.87549092133309     -0.94017478083042
  O   9.55665586709661     -0.03570128555969     -0.29073304288351
  O   9.31673048281596     -2.18942332945356     -0.93083338399288
  C   9.92237617333817     -2.67700240507224      0.25712940414614
  O   8.91000655780281     -3.12023481035395      1.13652739290233
  C   8.11416961360152     -2.10689385993671      1.53011294803244
  N   6.85808722130423     -2.23792077757360      1.52471461103494
  N   5.29570688888790     -1.08940093470382     -0.68872952692088
  C   4.46250072205262     -1.84252428723680      0.23526224099271
  N   3.62738248176259     -2.71115229837994     -0.09917098720481
  H   7.65768308656914      1.25528235228616     -1.06398245137435
  H   6.53934681851688      0.62683455037670     -2.32216323682953
  H   10.52933528532206     -1.89361236726472      0.71126692210702
  H   10.50120821740013     -3.55143057121798     -0.01322276505599
  H   8.63429909550848     -1.18029271425424      1.78301606911138
  H   5.19324052920301     -1.27106517555923     -1.67603761748468
  H   3.58787314286861     -2.86002935421762     -1.10781181866545
