24
Coordinates from ORCA-job 13548optt
  Br  1.12781518577993     -0.10130249528120     -0.39904556199327
  C   2.97385637859283      0.04011793851797     -0.18021401310428
  C   3.65528136945729      1.18066203602000      0.03833389231071
  N   5.04383618703218      1.20400289371780      0.12480104692614
  C   5.68749896983420      2.49824820364941      0.23596873255554
  C   5.00659781803996      3.45723189834083     -0.71965440777123
  O   5.49597897929835      4.77007421174138     -0.52390942192371
  C   6.64099063458710      5.08440361589585     -1.15057796305319
  O   7.29762572693062      4.32994439578325     -1.79937824132579
  O   3.63727778811685      3.56412246688456     -0.43727755769906
  C   3.01639267921288      2.52325644124182      0.19672345275182
  N   1.96641815802973      2.67680059000124      0.85728230092765
  C   5.80981768128743      0.03732456007052      0.16268575750931
  N   7.04972181352764     -0.08065529647816      0.39557827457696
  N   5.07683114927405     -1.10095279706813     -0.10482429255556
  C   3.71622582310584     -1.23201892613721     -0.29528996148844
  O   3.21925079515717     -2.30574015503905     -0.51734021021700
  H   6.72811657031347      2.41518156034487     -0.06645842749538
  H   5.62965827489662      2.89921918206420      1.25268704327215
  H   5.16259349394665      3.15906540675995     -1.75826687313383
  H   6.87818003390083      6.13700074973523     -0.96492904395219
  H   1.67847807421566      3.65544926484138      0.86258315777242
  H   7.52360078563376      0.78469925926996      0.61429687378957
  H   5.61195562982887     -1.95913500487652     -0.11077455667934
