23
Coordinates from ORCA-job 13551optt
  Br  1.02772341795486      0.01442420924091     -0.42497285724538
  C   2.88415226890490     -0.13660941381032     -0.24474353516046
  C   3.52784647597310     -1.28162350906848      0.06695417056761
  N   4.90639468629719     -1.28548968208209      0.14444300509726
  C   5.43867936003470     -2.59782750359947      0.44565078799889
  C   4.17698553992660     -3.43291606312526      0.58060580337771
  O   4.11064817282162     -4.59543256082380      0.84380683730186
  N   3.10035531901202     -2.58012159617992      0.33843718177617
  C   1.76852805201036     -3.02778445924374      0.48797885237061
  C   1.08101312639473     -3.77690486069867     -0.40291444714562
  O   -0.13334090473450     -4.06180221210668      0.09298000283179
  C   -0.21924492437984     -3.49418100392380      1.32006168312982
  C   0.92510673711287     -2.84765328068979      1.62694295584338
  C   5.60187254678282     -0.14352908600592     -0.09216601711159
  N   5.07592773680173      0.98048578414118     -0.38299449996189
  C   3.67284662285341      1.09228020871474     -0.48896950266876
  O   3.15824527691905      2.14345079980125     -0.76981246715192
  H   5.99942320677442     -2.61779214566602      1.38068664462635
  H   6.06097343830948     -2.98929775037325     -0.36006845591444
  H   1.32284303543919     -4.16223898928338     -1.37771268601920
  H   -1.14847384090588     -3.63774134705021      1.84176536130482
  H   1.14563393045003     -2.29617419697150      2.52455686015219
  H   6.68186071924710     -0.24252134119577     -0.01451567799920
