21
Coordinates from ORCA-job 13553optt
  Br  1.49644559147877      0.38414192021988      0.42625153303086
  C   3.33020924159979      0.13458494517456      0.17524020487276
  C   3.87480984626940     -1.09541069781948      0.13293419059148
  N   3.28242112697066     -2.33434546594242      0.25728955454519
  C   4.22819213183486     -3.20034049042982      0.15124600333873
  C   5.56213399265577     -2.57758175049572     -0.06978826109505
  O   6.65339750079657     -3.07617113086796     -0.22359664347451
  N   5.25295079057385     -1.22912549710091     -0.06546758369580
  C   6.09331650063165     -0.10830803474370     -0.17777350831066
  C   7.41445774028308     -0.26260896456415     -0.41492540708752
  O   8.36036370044092      0.70098485045967     -0.51623496937878
  N   8.44656219226437      1.73297503273191      0.43537453126527
  C   7.43099691202872      2.47294622675870      0.55287351206620
  C   6.15469774424202      2.41454940393068     -0.21556399771428
  N   5.71301100358962      3.38667601877651     -0.88503617178985
  C   5.36927620126808      1.15241680649750     -0.11042953274673
  N   4.09694300592312      1.26559026351636      0.03704039572170
  H   4.06681060662950     -4.26760830813654      0.21055363354797
  H   7.82390084678435     -1.24854811410490     -0.58545057904622
  H   7.55141267618490      3.28221874280413      1.26838517095946
  H   6.33169064754988      4.19796424333567     -0.82492207560024
