25
Coordinates from ORCA-job 13557optt
  Br  1.47100523333800      0.21585860085225      0.78082638297121
  C   3.26183087380530     -0.03431209105580      0.37518345137538
  C   3.80101312623758     -1.21211317466774      0.04396887704821
  N   3.22352467841426     -2.45417276812188     -0.08789007918790
  C   4.17440109242013     -3.25326229314760     -0.43581601153705
  C   5.50320069454062     -2.58023016455660     -0.56231946936864
  O   6.59400646871808     -3.00509343387122     -0.86228514675167
  N   5.17389719708012     -1.28414851581454     -0.23765241748598
  C   5.94705186123838     -0.13514428721020     -0.15094775918008
  C   5.36670310672018      1.01535137045355      0.18226704819731
  O   3.99978313298550      1.09564467103193      0.44262364371997
  C   6.03841803237981      2.33403556493560      0.31044037132847
  C   5.53803163752273      3.38098906578183     -0.69789410899101
  O   5.84578089176733      4.63967997783472     -0.10625587997898
  C   5.98009179757047      4.51584323816333      1.24663651119352
  N   6.21961526060322      5.46374420783948      2.02991424565299
  C   5.80225206410229      3.06931970254653      1.63360346619184
  H   4.01595610341378     -4.30721476959715     -0.61668948232952
  H   7.00194379421805     -0.23173954840495     -0.35745185397782
  H   7.10792039279869      2.17897331448187      0.16046160854826
  H   4.45808013939567      3.30036062747165     -0.84194082817316
  H   6.04075432581139      3.32109895191414     -1.66064706402608
  H   6.28072977194149      6.34878837309049      1.52839688667588
  H   4.77570480391404      2.92269892817420      1.97604636941976
  H   6.48030351906278      2.78904445187606      2.43442123866510
