20
Coordinates from ORCA-job 13552optt
  Br  1.18983844514563     -0.01324980277530     -0.36224911634152
  C   3.01821628815748      0.12579853799186     -0.12580820733194
  C   3.71552011785433      1.26201638352370     -0.15873384251283
  N   3.22798382629421      2.55605837842298     -0.23448917340146
  C   4.22172907842784      3.31546705850320      0.04873444236165
  C   5.48558637628065      2.57057596495238      0.36906394630770
  O   6.51077745448525      2.98945961476495      0.82530787310042
  N   5.10219573367698      1.26290480670017      0.07450967445270
  C   5.75801920153202      0.02190316548106      0.08836142911341
  C   4.97766835323035     -1.07070789416174      0.14571507596332
  O   5.41821653376628     -2.32854303217847      0.17855323149442
  C   6.76197734387947     -2.52002224381300      0.18850754324532
  C   7.63222133392987     -1.52064518901397      0.05072131044765
  Br  9.46949047306895     -1.90703647817664      0.02190359374337
  C   7.19603776372164     -0.12441604486042     -0.15863649224775
  N   7.89117781782587      0.85546158632960     -0.55674727469287
  O   3.62350853556986     -1.07332019670535      0.14189714839282
  H   4.14504922622441      4.39266488994029      0.10765690676421
  H   7.01956019002670     -3.56132687850548      0.30067221009413
  H   8.86622590690214      0.59195737358017     -0.69194027895275
