23
Coordinates from ORCA-job 13550optt
  Br  1.09579477242450     -0.33234376312949      0.31728992968310
  C   2.95812706761301     -0.16489017024256      0.17656065322094
  C   3.70543771795186     -1.28831811676695      0.18768830982821
  N   3.30406856032868     -2.59120349845711      0.29698577940673
  C   4.37655256694354     -3.49362849748283     -0.06019207316608
  C   5.57848140437469     -2.57804462999211     -0.23007777451645
  O   6.66975543170708     -2.87950481374068     -0.58512400476381
  N   5.10198101876712     -1.27652510694681      0.06440530182279
  C   5.72603818250969     -0.05291931102359      0.03248317825996
  C   5.01639021172673      1.08933973794417     -0.00340138630671
  C   5.97535466661698      2.22577877006507     -0.01476399179806
  O   5.74825504020898      3.40486325867167     -0.05937759247320
  N   7.23641636406788      1.64483348629079      0.03723897763811
  C   7.18256230393506      0.25624976114572      0.16071342791319
  N   8.09859715264735     -0.56830002680152      0.41114199011698
  C   3.55124484800450      1.16309798379155      0.02568924480259
  N   2.84907963474954      2.22171848440348     -0.04424072330642
  H   2.34189596283159     -2.80113652861337      0.08320012643921
  H   4.20810236455683     -4.01537915659950     -1.00465327951702
  H   4.58777075361723     -4.23120619394348      0.71540271418022
  H   8.07629524057922      2.19128854739165      0.13753140676827
  H   9.00497554449138     -0.11404821455844      0.51743423434587
  H   3.44482318934650      3.04227799859434     -0.14193444857842
