26
Coordinates from ORCA-job 13560optt
  Br  1.12835008668903     -0.01361208858741      0.21823805816527
  C   3.00769325975194     -0.04629658586009      0.13406174985535
  C   3.65624932428558     -1.23036350449284      0.09505764427960
  N   3.17294386962567     -2.49949819365197      0.11686202306223
  C   4.22776727434042     -3.46086131033602     -0.10294539557875
  C   5.47747869391645     -2.59644401432587     -0.06576638631720
  O   6.60955915294347     -2.97883908782633     -0.12035544697641
  N   5.04227957623702     -1.27045734857652      0.03909205128825
  C   5.88876136191788     -0.11065325593978      0.09178535370394
  N   7.15011137516326     -0.17530910620053      0.15185956864988
  C   5.13686193415338      1.15311117002724      0.05963739986694
  C   3.78152633634450      1.14603244194921      0.10111672240912
  C   5.88086305459379      2.45071837921173      0.06486124420728
  N   6.97164159046994      2.67917374258319      0.66808499277070
  N   5.23066020514514      3.46159459775071     -0.63359785237641
  C   5.61484710549673      4.80193025005476     -0.72956777352255
  N   6.56192787496071      5.40534338403190     -0.16215545593866
  H   2.20758446463419     -2.66875755633287     -0.11214678094367
  H   4.16930891039324     -3.95698898770573     -1.07503741292746
  H   4.28712212608753     -4.21921530279274      0.67816192606310
  H   7.50058915278888     -1.12779981254595      0.15101886542768
  H   3.24538286455290      2.08684099714732      0.13462618069696
  H   7.32738022713377      1.83005062623938      1.09538229388804
  H   4.50508320435402      3.17441548127556     -1.26754343813760
  H   4.94848386144787      5.34815235236080     -1.39857485992666
  H   7.10554311257265      4.76373273254282      0.41384472831103
