23
Coordinates from ORCA-job 13563optt
  Br  1.16588221434121      0.25103304523770     -0.24387768571613
  C   3.03209828837140      0.15204036815547     -0.14501458169243
  C   3.65946190583190     -1.04768906897837     -0.10923328882126
  N   3.15532468090650     -2.29667820341582     -0.13808990689725
  C   4.18965050815829     -3.29256412767007      0.01988494315288
  C   5.45610059695562     -2.44651384212723      0.04276641678600
  O   6.58203731799085     -2.84248291026618      0.11489018481154
  N   5.03855207056927     -1.11626760887849     -0.03207289804777
  C   5.86931223819974      0.06142935851778     -0.02083787517033
  N   7.12722416073400      0.02731467731080      0.00110435833197
  N   5.17712338592807      1.25955043842628     -0.02787466766231
  C   3.89456806060559      1.29612582731625     -0.08278020700430
  O   3.22272778567628      2.46002445597290     -0.08323680088007
  C   3.79326565497285      3.70586652743751      0.01894752255635
  N   4.98844524436280      4.06291893057191      0.10220202259200
  C   2.71716618349118      4.76513198758535      0.02900363354307
  O   1.54936840999206      4.53235985614197     -0.05570528563779
  H   2.16678712105308     -2.46087530188370     -0.04947278683931
  H   4.23513929145925     -3.99805982522319     -0.81061288267751
  H   4.11384899031539     -3.84897859915067      0.95657978304254
  H   7.48661153883229     -0.92243418477217      0.00830236990729
  H   5.63962407823711      3.27798971296465      0.08552712743494
  H   3.13568027301519      5.77975848672733      0.12460050488787
