22
Coordinates from ORCA-job 13562optt
  Br  1.17926340712007      0.22871798043311     -0.99512405917038
  C   2.94721302522966      0.01219165532205     -0.46179013245164
  C   3.52933833367912     -1.15512398871423     -0.20876001981046
  N   3.02746945453739     -2.45775101116003     -0.22008714547807
  C   4.15592806730752     -3.38491577543587     -0.33683343863030
  C   5.37456197229764     -2.52165936393794     -0.06423573356214
  O   6.51449712005424     -2.87879691770842      0.02936635809650
  N   4.91721040040597     -1.21062926465972      0.02114987503556
  C   5.72538214242307     -0.06029658648176      0.06705851814028
  N   6.96914850215943     -0.01828928187079      0.21371160418925
  C   4.97317669331727      1.25639401103940     -0.09634107080605
  O   5.49509535942831      2.31076257350393     -0.00905331820212
  O   3.63351218051226      1.19138543671938     -0.37498600226253
  C   1.89116226826106     -2.84086271110869      0.53110075893183
  N   1.18728772823160     -2.12694230463584      1.29715150076123
  C   1.54090604607030     -4.22889396545729      0.32127640284609
  C   1.27762217816782     -5.38224591203908      0.14291339472940
  H   4.24138860961425     -3.81586229310230     -1.33680260439437
  H   4.09560391928764     -4.19290713448299      0.38864829375673
  H   7.37552565208472     -0.94939995002022      0.30238922292449
  H   1.53777242395805     -1.17515779876075      1.38412400859954
  H   1.02293451585257     -6.40471739744189     -0.00987641324284
