19
Coordinates from ORCA-job 13568optt
  Br  1.01778718909538     -0.26700343820927     -0.93336850463893
  C   2.77862688280213     -0.12063010109971     -0.34339973921855
  C   3.54007263316800     -1.19952323772987     -0.13409848388749
  N   3.21208127534651     -2.53867565675634     -0.15532741262789
  C   4.30503430426976     -3.17737122825294      0.08081642746447
  C   5.50237526796787     -2.28954118867243      0.22128239028945
  O   6.66610083503439     -2.55648813456396      0.35573842098666
  N   4.91026804155354     -1.03970009308597      0.12611374107727
  N   5.56875716341883      0.12995163109837     -0.13285672380495
  C   4.82592639621259      1.13880813253657     -0.31901803212138
  N   3.41523543447285      1.12876182209639     -0.28712961892369
  C   2.75260974404215      2.31718849326963      0.02260528797111
  N   1.61464715358260      2.32541418553381      0.65957037430997
  S   1.15233007820450      3.88922708285250      0.82114037712275
  C   2.55367195302409      4.45938605028685      0.04304479024929
  N   3.33590693379510      3.49686800171356     -0.34323883743766
  H   4.35292219073424     -4.25608838528459      0.14031215976391
  H   5.27333332162397      2.10281084439647     -0.50996984718906
  H   2.76731320165146      5.50560521987094     -0.12321676938528
