25
Coordinates from ORCA-job 13561optt
  Br  0.80978737059566     -0.43535955121663      0.65340332488523
  C   2.67733885913068     -0.47816294061485      0.47491699645197
  C   3.41628543276986     -1.56494343069319      0.13765367296858
  N   4.77941425214401     -1.46804769381613      0.11047150979002
  C   5.40102614191231     -2.73639682718905     -0.18240100090868
  C   4.21082913100491     -3.65703751158265     -0.35160057648784
  O   4.20715159506176     -4.83189080035593     -0.57756378858567
  N   3.07527128061028     -2.86272891662785     -0.20428225598531
  C   1.75965686056659     -3.46811784953163     -0.22594904558261
  N   0.93276997664208     -3.28597047662982     -1.14445377432432
  C   1.49069124132249     -4.39241671743721      0.93612378079012
  C   1.93233547363138     -3.81426337719414      2.20230422872633
  C   2.32821015455051     -3.30909957195904      3.21266120795878
  C   5.49586853605154     -0.29251357619991      0.41675214437749
  N   6.76355334859359     -0.21662856615611      0.40342001429667
  N   4.71649419368057      0.80612203570969      0.74643777699711
  C   3.43460715275946      0.70055341161143      0.77123012211129
  H   6.03195044133542     -3.08019157243494      0.64150479503821
  H   5.99601657278379     -2.70984797562351     -1.09879518599227
  H   1.28561707853069     -2.65473481558302     -1.86343134032140
  H   2.03489001131100     -5.32387353255231      0.75220805030109
  H   0.42516992571682     -4.61664472981582      0.94548292029883
  H   2.66343903766276     -2.87104865848157      4.12291327412242
  H   7.21195905635101     -1.08931934956834      0.14369369339806
  H   2.87166687528072      1.58956299394259      1.04629945567588
