22
Coordinates from ORCA-job 13569optt
  Br  1.41954692001978     -0.52055648832280      2.09552652091208
  C   3.01395396700657     -0.21462524240744      1.18339584551685
  C   3.63859036484983     -1.15774098981874      0.47886415560330
  N   3.26291137838533     -2.48082479868358      0.31094374422853
  C   4.16019334796995     -3.03301557531606     -0.42414421887385
  C   5.24281426426901     -2.09626440869910     -0.84966100775576
  O   6.20428205546410     -2.27017078505867     -1.54443453247991
  N   4.84048689184694     -0.92291963195425     -0.22072682819692
  N   5.46811917893248      0.25876465616733     -0.39388631203410
  C   5.04585051952150      1.27719329571525      0.22161844198053
  S   3.66448567800140      1.40215768244438      1.34233602283125
  N   5.69662300762970      2.50182192220315      0.02559274874678
  C   5.15298674640944      3.57078152563594     -0.79817872593201
  C   6.24178813114837      4.62461178394344     -0.58270808724944
  O   6.82506671573061      4.29286883469331      0.67848168718866
  C   6.56047333911208      3.00612943618365      0.99045050943330
  O   6.99290960484748      2.42893244011832      1.93660274969912
  H   4.12663431557148     -4.07510072718507     -0.71130232459527
  H   4.17626332724060      3.90042143769009     -0.43204672791686
  H   5.06812408716775      3.26530477688072     -1.83890881170111
  H   5.85700015482031      5.63872065446977     -0.52636917308559
  H   7.01289600405515      4.55851020130035     -1.35044567631959
