24
Coordinates from ORCA-job 13572optt
  Br  2.00142030833498      1.81592235189048     -3.02105723105479
  C   2.78116462982141      1.11246939260647     -1.47626323966515
  C   3.48835863424868      1.89124817915982     -0.63259607626583
  N   4.25405922190444      1.24905867073697      0.32496281704767
  C   4.40576486148278     -0.11375555030371      0.20910970252661
  C   5.60314656078665     -0.69987145437246      0.87700159174969
  O   6.34780506760789     -0.02062703677130      1.52690249559363
  N   3.56099925566524     -0.87448857119223     -0.38021042621629
  C   2.42372236799040     -0.17213101519166     -0.82471410805268
  C   1.19405635716404     -0.38241570930892     -0.29475073025583
  C   0.35815849474992      0.81418548107187     -0.27330157693254
  C   -0.24967737822518      1.46849411395288      0.72717200085324
  C   -0.35992398331587      2.96817221926833      0.59418412766261
  O   -1.26635141740095      3.62208296832807      1.03941769439688
  C   0.83822605996987      3.59579409271703     -0.12284414854849
  C   2.02707915677153      3.14447378337729      0.24589602909854
  O   3.26522956653631      3.23120796116868     -0.44021615400592
  H   4.92462547272944      1.76881660202480      0.87743425136360
  H   5.72091762979456     -1.78515830127958      0.74226243225220
  H   1.02179534039742     -1.25070245418195      0.32823862689440
  H   0.47984121787285      1.42253016632617     -1.15338501105317
  H   -0.54017302382067      1.03111428386561      1.67576031443783
  H   0.67819192451513      4.29865326503395     -0.93002767149461
  H   2.11056367441910      2.48292656107338      1.10102428966839
