21
Coordinates from ORCA-job 13574optt
  Br  1.24141004678445     -0.07543730859464      0.01929347655484
  C   3.08976376110053      0.08900924779726      0.01659030272294
  C   3.74336796358798      1.28872474422674      0.01586574867633
  N   3.03839152210054      2.47845999619587      0.01648249295724
  C   3.74227182208407      3.54337828215966      0.01595010790962
  C   5.23907600168507      3.59204645363011      0.01494641906250
  O   5.80851053139762      4.65395581123353      0.01476255373907
  N   5.91528182147233      2.37013245828458      0.01420640236558
  C   5.18140387640998      1.30480763177422      0.01461970245201
  C   5.81900667718920      0.00195478327984      0.01388189721299
  C   5.06916038099352     -1.12882836465171      0.01426789689529
  O   3.71104119000939     -1.07950939679009      0.01567676579179
  C   5.69275787456751     -2.44206991154904      0.01324414992912
  N   5.12609338452715     -3.58300152059438      0.01297744725077
  C   7.15799198189480     -2.32881237319169      0.01250417318566
  N   7.83556241141791     -1.23561404709807      0.01231731968459
  N   7.16863829097956     -0.07878562056432      0.01286172542779
  H   3.23973560877884      4.50635126137589      0.01631815262846
  H   4.11058915159261     -3.49640678231156      0.01354136247925
  H   7.72552144176225     -3.25072274343540      0.01207121056516
  H   7.70742425966464      0.77636739882321      0.01262069250902
