23
Coordinates from ORCA-job 13589optt
  Br  2.08771466513632     -0.82986540504796     -3.11281618138771
  C   2.39914602517541     -0.40949399042984     -1.32989589378711
  C   3.39825479834485      0.55930578312769     -0.72512832760746
  N   3.39998874895311      1.93358392785987     -1.08076349933863
  C   2.19170519079515      2.58305258053846     -0.73176722413077
  C   1.55134915475665      3.49452373610419     -1.62433520680925
  O   0.50504234818981      4.07646489631359     -1.38195805294847
  N   1.59026738280854      2.22357296143001      0.42508042002581
  C   0.38970733241775      2.49801956274298      0.92718070608520
  C   0.25224135598559      1.71041549102675      2.11988073614086
  N   1.28656101322086      0.99895621040222      2.40759182071766
  C   2.25293443607651      1.27798635875297      1.40033996746947
  C   2.77339814281690      0.10729613425854      0.60763590383601
  O   4.04494880583802     -0.43798322118432      1.05619895399491
  C   4.66442884846536     -0.05443783520449     -0.10664055979411
  O   5.80557014272488     -0.14553841180076     -0.38849772641906
  C   1.88934004519202     -0.82912248506008     -0.16910056492458
  H   4.25861097687463      2.41526061622571     -0.83876802834697
  H   2.08965417388443      3.64094104638058     -2.57499275331587
  H   -0.28662951981870      3.17973678997734      0.44578997220033
  H   -0.63627208834466      1.69846105744038      2.73820250048901
  H   3.11297904964771      1.80780229490407      1.82569711805165
  H   1.18205897085883     -1.58893809875791      0.12206591979907
