23
Coordinates from ORCA-job 13584optt
  Br  3.06158089205186     -2.08622198101392      2.12260165498419
  C   3.31011808170130     -0.67467617824318      0.93239315277491
  C   2.40281023115127      0.27081587867057      0.69519768307240
  N   1.09918276905950      0.52469915183090      1.15461110825201
  C   0.64179361270976      1.72135799305925      0.44400877521885
  C   -0.40377302871398      1.25549523461510     -0.59084089397375
  O   -0.18953819412452      1.22734928765487     -1.76438899198145
  N   0.03787381098036      2.69260421537436      1.31221811211745
  C   0.11134481960942      3.90093694491290      0.89155086481812
  C   0.87746497812501      4.34368713697697     -0.26217284357303
  C   1.81697693902327      3.50079907554281     -0.73132934604966
  N   1.82732367784553      2.22680457553569     -0.24217461193682
  C   2.84872285507925      1.32024557644981     -0.19166561239795
  N   3.98182080494870      1.40750140397541     -0.77777453900997
  C   4.86424346466862      0.35597188524264     -0.57295494754660
  N   5.97903843633408      0.18903459722535     -1.12177641385480
  O   4.51439666308832     -0.64451095082430      0.35169198318501
  H   0.99940338493172      0.62758338953401      2.15902742018995
  H   -1.35750541760024      0.93088390279876     -0.13910357743719
  H   -0.37489438123231      4.65843892767741      1.50110413405875
  H   0.81711774518104      5.36393199497450     -0.60427205366233
  H   2.60723238375926      3.75368959832751     -1.42544235280015
  H   6.15126547142275      0.96057833970255     -1.75950870444796
