23
Coordinates from ORCA-job 13585optt
  Br  2.42884389317838     -2.33241935747666     -0.24006481862721
  C   3.12957296120216     -0.60545311950633     -0.32970447479488
  C   2.47985523218827      0.47098817766957      0.19725715953055
  N   1.26068118954725      0.21940829136895      0.83330535186431
  C   0.28454618198778      0.99602843020301      0.54943161329167
  C   -1.03491024820822      0.67498088175935      1.19560926922823
  O   -2.02559721978870      1.31872040775416      0.99596974222470
  N   0.53701684502609      2.07427098139741     -0.24841384357018
  C   -0.02280344383275      3.22412913205323     -0.17040333971050
  C   0.88510432605666      4.32064594026065     -0.32675769526209
  C   2.14011366848800      4.14207776080395      0.15820528880704
  N   2.76644811429567      3.01600048655321      0.68563037548937
  C   3.13024768874214      1.78366360809600      0.03497749812655
  N   4.25363476441458      1.89188642893078     -0.58595986003578
  N   4.82427629308230      0.81838343441920     -1.11649096488641
  C   4.38740409290564     -0.48781444172384     -1.06055856993528
  O   5.01164669351385     -1.38508580593688     -1.57924545422593
  H   -1.00914049675674     -0.20525775280123      1.85872577853489
  H   -1.04235555302926      3.39365307207167      0.18077933564553
  H   0.55461820384485      5.32699871965476     -0.53857925718901
  H   2.72936465573640      5.04062547462675      0.31203198307860
  H   3.59024573682672      3.31578861031532      1.18902329037957
  H   5.69218642057892      0.98578063950691     -1.60576840796374
