25
Coordinates from ORCA-job 13588optt
  Br  1.49716405199562      0.18108282138831     -1.62142635870364
  C   3.13670125187414      0.10654607214981     -0.71398997540360
  C   3.58098163958738     -1.05934258914195     -0.16586590437530
  N   2.82800025976390     -2.22269881170207     -0.21157299033443
  C   3.19693647178124     -3.54245282929103     -0.32642942602578
  C   2.01778197213709     -4.41695958707063     -0.68705179621636
  O   0.91724736770311     -3.97503251068882     -0.84964079001735
  N   4.29066662603665     -4.16264151275116     -0.17069981180334
  C   5.50354848530109     -3.46301629165279      0.22613460275797
  C   5.24500520965159     -2.28936372105842      1.18124670151538
  N   4.77233040724272     -1.09713295240087      0.50478261959623
  N   5.58029949382675     -0.03072421097794      0.58118761889656
  C   5.19493614193058      1.07955073922127      0.06915544279047
  C   3.91950398222316      1.31737639471882     -0.61227150230128
  N   3.52756343770623      2.43954047497190     -1.08288374625322
  C   6.26313092216010     -3.02431866545570     -0.94782589313359
  C   6.87474760224025     -2.63398115170305     -1.89892126398672
  H   1.85888124951249     -2.07630214364349     -0.48535081485426
  H   2.27457713584345     -5.48237179690219     -0.78027451848476
  H   6.11063279131715     -4.19218237238732      0.76856739267156
  H   6.16905736437523     -1.99661289296590      1.67105828063290
  H   4.52017723144839     -2.60375557005052      1.93581563693390
  H   5.89072211237533      1.90526562109704      0.17116109209236
  H   4.22572956092258      3.16287171491147     -0.92114509108603
  H   7.42267723104371     -2.29434422861477     -2.74575950490765
