21
Coordinates from ORCA-job 13593optt
  Br  0.85103324209770      0.17255921175042      0.28025328100046
  C   2.70726259798716      0.00783933238727      0.15137461031234
  C   3.27964491964201     -1.21721718847535      0.05306602746456
  N   2.68960886324210     -2.45121615051230      0.18255158622131
  C   3.04645199057151     -3.29106200181983     -0.69947294127318
  C   3.81015119928119     -4.43562852427085     -0.10122484163397
  O   3.52378309449828     -5.53559613174609      0.22906983441720
  N   5.09318325184281     -3.84448992073141      0.04210544520365
  C   5.38574950968187     -2.59605534752862      0.02970983763032
  N   4.67225918635265     -1.37631915722692     -0.02131507755040
  N   5.53440623707608     -0.30455764539527     -0.01522000849148
  C   4.98684190836070      0.84856724888125      0.05954712711114
  N   5.64345070345097      2.03835382238015      0.07069118055052
  C   4.72701256025613      3.10923448336894      0.17842979295855
  O   5.04729047944959      4.26512748712187      0.22177612819458
  C   3.39012373130550      2.48426022754863      0.22404841173823
  C   3.54835815102806      1.14893828822895      0.15554899999947
  H   3.32068893337487     -3.00088816552226     -1.72145838565910
  H   6.44052825946239     -2.34011172322646      0.07360221700779
  H   6.64214209151870      2.15975388649443      0.03121122147396
  H   2.47602908951969      3.04850796829348      0.30170555332404
