26
Coordinates from ORCA-job 13592optt
  Br  0.88344438903304     -0.09573780816921      0.05121491054612
  C   2.76212832499071     -0.14886139345905      0.08257666190555
  C   3.50730380591524      0.99679487785767      0.09708586091874
  N   3.23108434924357      2.33799965959412      0.13381909510918
  C   1.96078265801370      3.02486768317022      0.13633386269755
  C   1.23252953034740      2.94688960796855     -1.19838128684159
  O   0.23851437163580      3.57341199917024     -1.40897014681938
  N   4.37865520249443      3.08375648107838      0.10823985088570
  C   5.34481181502645      2.24120439491834      0.07415601006265
  N   4.88400784834346      0.94574890387135      0.06581451381590
  C   5.56652489122449     -0.25149205107000      0.06293455465894
  C   4.88177143048426     -1.40905425749460      0.00855991334147
  N   5.54839426050291     -2.62971203008936     -0.04553665982949
  C   6.77909006491165     -2.82479915520317     -0.63794818966402
  N   7.54365119046769     -3.82572012186864     -0.54124556423575
  C   3.39513444714663     -1.44784583131924     -0.00186464019930
  N   2.69761511945466     -2.52085800386268     -0.08089628353007
  H   2.17457464964980      4.06998030976635      0.35412915311261
  H   1.30772208961875      2.63478623959591      0.91537295938266
  H   1.68393937589613      2.28147732530436     -1.95885695368303
  H   6.39084422898514      2.49588820937910      0.05608854098914
  H   6.64265312545297     -0.18616056114058      0.12284631438410
  H   5.15127278744260     -3.39490176479160      0.48067248786842
  H   7.06832617202049     -1.99639763809087     -1.28393479891076
  H   7.18163377124030     -4.53488740458811      0.09672968688544
  H   3.27359010045764     -3.34637767052751     -0.21193985285077
