23
Coordinates from ORCA-job 13599optt
  Br  -0.54462320996807     -3.41110758395850     -2.39112171677568
  C   1.23018393100317     -3.05778701739809     -3.07807286580710
  C   2.38792477788497     -3.02600304868289     -2.07382942651449
  N   3.56719828346134     -2.28303718846209     -2.58524690999915
  C   4.39151343326709     -2.56974474205097     -3.55979446289852
  C   5.82917079553721     -2.17055366078538     -3.41221260988719
  O   6.62224686045687     -2.28126527558047     -4.29536054270529
  N   2.16229610720467     -4.11988973896108     -2.93414375720766
  C   3.04005821612355     -5.11404286316497     -3.25657812755197
  O   4.03471121719187     -5.26782450177960     -2.57534465548085
  C   2.96104637156572     -6.00066494418961     -4.48130076845543
  N   2.80305183201140     -5.62871787015326     -5.68004692125244
  C   2.39659409630593     -4.30325890911725     -5.87977814256656
  C   2.89941976432636     -3.20057758408997     -5.34088470363648
  O   4.12660186183498     -3.23689281790291     -4.66800685114965
  C   2.05419047971690     -2.00258253469096     -5.18212607949428
  C   1.20727183012772     -2.03612016749747     -4.15808351666086
  H   3.95793009790562     -1.67472961363768     -1.87627213447293
  H   6.08308269309873     -1.74923973651551     -2.42307880406165
  H   3.26066921458328     -7.02606722746063     -4.28032241100293
  H   1.50152977478069     -4.19328683183146     -6.47886161650275
  H   2.08964967872739     -1.16865945967447     -5.87140300681680
  H   0.51128189285258     -1.22594668241472     -3.97412996909927
