24
Coordinates from ORCA-job 13597optt
  Br  1.19512776196651     -1.58680078603168      0.18269205957362
  C   2.55725459450024     -0.29478756696255      0.31325952756259
  C   2.68825086623452      0.69449290337248     -0.61073422385263
  N   1.71383147888961      0.82601695148394     -1.60378036965554
  C   1.02299239173554      1.89302402317295     -1.67396791357839
  C   -0.07284698243404      1.88535093726713     -2.70714324898013
  O   -0.92351825171982      2.72417824688199     -2.77001383825511
  N   1.16083149986601      3.09770965068963     -0.99550337321687
  C   0.93178191327102      3.40687261613607      0.19163100284188
  N   0.43340057640465      2.51021655264628      1.21160637279410
  C   1.33326452044165      1.74113282672855      1.85980292680527
  N   2.57582537192229      2.05949261220840      1.81088353991438
  C   3.55991294350688      1.09673981850305      1.69976222664442
  N   3.19424394638740     -0.28250290254038      1.59685701220621
  C   4.52745673446399      1.36248980693330      0.77503230401209
  C   3.82287524800443      1.72131241358872     -0.49759194669825
  N   4.05119510440242      2.49950903852450     -1.45906098592857
  H   -0.03562245585546      1.00225413228586     -3.36525307505040
  H   1.13204915096042      4.41903649136639      0.52836795045791
  H   -0.53345410546857      2.22471198379953      1.17766595649767
  H   0.91766304346218      0.84194874750707      2.32518387995073
  H   2.62591136820171     -0.72074439099512      2.31283341728960
  H   5.26327451299967      0.57687043331430      0.63340603591723
  H   4.83429876785673      3.11447546011955     -1.24293523725181
