25
Coordinates from ORCA-job 13595optt
  Br  1.10328884281011     -0.15393013412826     -0.71757874702477
  C   3.00806664537811     -0.21166860190432     -0.55404325199319
  C   3.65728482690928     -1.46697819101815     -0.49722848225035
  N   2.91630416659826     -2.64837676669402     -0.57256699003808
  C   3.13417440848471     -3.75613443879870      0.34522090655978
  C   4.55775665281682     -4.29133754599440      0.27862122850911
  O   5.04442744211487     -4.93568925968758      1.15472066246143
  N   5.30077500190079     -3.83484831585536     -0.85370707920795
  C   5.94021100642207     -2.60812187674076     -0.44197213418361
  N   7.12970720128932     -2.54039555415836     -0.04698100686569
  C   5.06115170197058     -1.39826991651425     -0.43744892359124
  C   5.68581827854536     -0.15223543657915     -0.38179464580799
  C   4.92728452656661      0.99527727078201     -0.41675684412603
  C   5.49862891986101      2.39304806676246     -0.33550365113504
  C   6.95713230407841      2.43211512580055     -0.35771942142027
  N   8.10184058479541      2.44787848120915     -0.37648482197179
  N   3.59591650395106      0.94625763899973     -0.52032837641244
  H   1.93495207113440     -2.46566074858547     -0.72319531634393
  H   2.44286954844289     -4.55886530487566      0.08405295155625
  H   2.95664279831266     -3.49170583239166      1.39215390029372
  H   4.63010572095693     -3.60023712318023     -1.58237534935233
  H   7.57539913383783     -3.45544455689384     -0.11071963067050
  H   6.76564969207738     -0.12005647222832     -0.31935746773837
  H   5.14878120799268      2.87050725812267      0.58238231595571
  H   5.11483081275242      2.98687223455194     -1.16638982520242
