22
Coordinates from ORCA-job 13600optt
  Br  0.91705552868344     -0.67996880555933      0.28491917839704
  C   2.66995580880877     -0.06322453760624      0.11457547434400
  C   2.93769681741839      1.25706686958595      0.20845223119799
  N   2.03634037894462      2.30118671225323      0.28334470111671
  C   2.27791193285536      3.16438001074665      1.17684015633904
  C   2.60549253972193      4.49484665902820      0.56438896425693
  O   1.97326238316512      5.46871703595216      0.32721858120424
  N   3.97628055244019      4.32737089839704      0.22386947210273
  C   4.61737806255271      3.23453101598497      0.07767210213620
  O   5.97736959720249      3.42461270929070     -0.17794257047891
  C   6.71972266853168      3.99680569180170      0.80889571255061
  O   6.38160378554797      4.11351077834148      1.93838046341981
  C   4.29003982400594      1.79150062042677      0.05239967905662
  C   5.27217103371448      0.87593989475715     -0.18581330253118
  N   5.00066949242811     -0.43740444238546     -0.25010244953018
  C   3.72768481271767     -1.03800795444416     -0.10962576513343
  N   3.52644537193037     -2.28922752261562     -0.16897021192085
  H   2.78057067189046      2.92446898371584      2.12169472920731
  H   7.68804549628800      4.29485435637416      0.39398347867783
  H   6.30207203587372      1.15510919446416     -0.34788633518857
  H   5.76491572733894     -1.07211476715420     -0.42692735807812
  H   4.37731547793957     -2.82395340135516     -0.32536693114583
