24
Coordinates from ORCA-job 13607optt
  Br  1.03077689232051      0.10379048548352     -0.26171721278020
  C   2.91602102487819      0.08878727960088     -0.10095292191752
  C   3.56720763076829     -1.14030296740507      0.04182454256206
  N   2.93883680578867     -2.35661467743551      0.10287318357252
  C   3.69609429173694     -3.49612880797654     -0.37242756579334
  C   5.09313417702482     -3.49884626390324      0.21093457414095
  O   5.71632192760041     -4.48447501997725      0.43715815548319
  O   5.65004168147506     -2.28242679367587      0.43585412262182
  C   4.96072193733506     -1.11749480242523      0.17595008083388
  C   5.68098699369800      0.05287519532287      0.12780698716805
  C   5.00410581564290      1.25934659955885     -0.02625974468285
  C   3.61673413622627      1.27603950782817     -0.12912028881374
  C   5.70971309753516      2.55854086810166     -0.07189277691127
  O   5.17702600543818      3.62756763668768     -0.14340489113410
  O   7.06531606987864      2.39828689651409     -0.02499552561065
  C   7.85733815635281      3.52921387755010     -0.03579249863387
  N   9.10366543608475      3.47055095359830     -0.03236801825691
  H   1.95300128872253     -2.35278760697190     -0.11429614963971
  H   3.80523053034950     -3.50357631363600     -1.46570637258751
  H   3.21814643548312     -4.42263974983294     -0.06744854727117
  H   6.75526655835033      0.01572638045233      0.23439208832850
  H   3.10344037668223      2.22112010064699     -0.24012461401737
  H   7.29826422000889      4.45745638317624     -0.04447117742172
  H   9.43660851061869      2.50599083871787     -0.02581542923902
