23
Coordinates from ORCA-job 13609optt
  Br  1.18513692391908      0.18111312740997     -0.01367213640860
  C   3.05538922978610      0.01994421701127     -0.03678878349442
  C   3.65489961191790     -1.21027474894720      0.09114355221764
  N   2.98666713673751     -2.37491656496228      0.25969011438941
  C   3.63405028107735     -3.61535576441064     -0.12194610775715
  C   5.08933353932512     -3.65839705875290      0.29784558641321
  O   5.66809526447274     -4.66846075120452      0.53944979044993
  O   5.73723172126399     -2.47587384013451      0.35871810498676
  C   5.07577934278371     -1.30036086245309      0.07757336498421
  C   5.79132626555645     -0.17319645203062     -0.11802331174594
  O   7.11753116822767     -0.16785680142439     -0.09774877221967
  C   7.77946043612083      0.97334915340498     -0.60350279765028
  C   7.55936568405971      1.14471093069837     -2.08941664259770
  O   6.85354896650380      0.42869689346220     -2.73455263466522
  O   5.21247220318679      1.00673398407345     -0.26900850395907
  C   3.81026264128954      1.21615151449747     -0.22711992738380
  O   3.43948024873181      2.34169882606402     -0.36486392225422
  H   1.98082822896855     -2.33018927573316      0.18023379092358
  H   3.61140630119136     -3.77339458933898     -1.20740322128828
  H   3.14085191644406     -4.45730885416312      0.35553871753237
  H   8.84052484813249      0.81091440391067     -0.41202229230674
  H   7.46981731416335      1.88611730512498     -0.08747243218998
  H   8.10454072614004      1.99315520789808     -2.54265153597602
