24
Coordinates from ORCA-job 13604optt
  Br  1.13186621963104     -0.11413348934913     -0.18863014780732
  C   2.99452274045981     -0.04300027237317     -0.02813190802628
  C   3.70159749356015     -1.18193538706349     -0.03196482258456
  N   3.40025517395223     -2.51952244238897     -0.13259099786700
  C   4.58383073939240     -3.20723652265159     -0.08971664870701
  C   4.66867129347311     -4.67512318257529     -0.17885122750852
  O   3.68192271385519     -5.34594896667967     -0.30405144100460
  N   5.61282347125967     -2.43413588648068      0.03432077381024
  N   5.08120008344821     -1.18320525560561      0.07683969604421
  C   5.75841919996437      0.02067774249806      0.17024508348854
  N   7.09941535817853     -0.07243382697068      0.25297521226926
  C   7.90588090314854      1.13390282037245      0.29716589608442
  C   9.32336231230076      0.79079115963339      0.32680193113512
  C   10.48369313433173      0.50157905906741      0.35110999358284
  N   5.13026674505882      1.13913614232215      0.17766381415587
  C   3.72392573881019      1.22255103499392      0.09264515063800
  N   3.10283605476887      2.33173933611406      0.11336335855499
  H   2.47976757668446     -2.91771491822992     -0.23292019060683
  H   5.68621626953601     -5.08846755999504     -0.12209074570637
  H   7.53915784547276     -0.97572980267837      0.18981560902502
  H   7.64114928149232      1.72084229862284      1.17976468270944
  H   7.68545219615986      1.75829954883493     -0.57233496296709
  H   11.51782123820660      0.25200563437032      0.37238058652012
  H   3.77494621685421      3.09106273621211      0.19819130476752
