22
Coordinates from ORCA-job 13603optt
  Br  0.94921237539404     -0.68314315390557      1.13844434158657
  C   2.23288006782917      0.16503235550582      0.05818195476258
  C   3.20331275401760      1.01386493051325      0.56257829996250
  N   2.81974077952485      1.80295685118833      1.66827959566544
  C   1.62095985990149      2.43509888763948      1.52293149645204
  C   1.14301965662517      3.14664779643919      2.78036482091215
  O   1.86681419627308      3.21664118599107      3.73179600721701
  N   1.01064906089240      2.34098969974840      0.40100846821029
  C   -0.34155857441645      2.48345268588838      0.21163379956321
  O   -1.10766702358044      3.22705030402427      0.74816041719812
  O   -0.84976514366039      1.60855102805170     -0.71590307629043
  C   -0.31979565431093      0.83823438821658     -1.72249404523765
  C   0.81664271440226      0.18267781283653     -1.99908982881644
  C   2.11996077269979      0.18474382578162     -1.32666104254167
  N   3.18634920024295      0.45586411577947     -2.08126804312896
  N   4.30609262937995      0.87429962812113     -1.54199131492541
  C   4.27276773336189      1.29627453734466     -0.28068974680628
  H   3.35765171027628      1.95946628740005      2.50873330361229
  H   0.13982195142746      3.58631645134802      2.73190784469594
  H   -1.10736964930254      0.73378502775973     -2.45809044045285
  H   0.79986472402875     -0.28956975164113     -2.97350836624231
  H   5.11841585899358      1.88376510596899      0.05567555460387
