25
Coordinates from ORCA-job 13613optt
  Br  0.10667926773243     -0.56563509456465     -1.30386216842989
  C   1.78799563667478     -1.42435696689927     -1.27241801856532
  C   2.40818992315282     -1.78865121704957     -0.08655593686931
  N   1.67451049034185     -2.12342764969827      1.05165314817149
  C   0.51406928861901     -3.00685361620703      0.92336876733973
  C   0.76643659820337     -4.51431644693486      0.69057565738735
  O   1.44909369403969     -5.18645963678295      1.38437456765774
  O   0.01132328341447     -5.12407725861596     -0.34063760859491
  C   0.31451233291613     -4.54723155021888     -1.53891357300055
  C   1.54244030848282     -4.15466045085280     -1.93365062428906
  C   1.36841000876136     -3.10093719433235     -2.91004903386604
  C   0.02517883988670     -3.06400822959386     -3.18907855147391
  N   -0.61834747948870     -3.95603006228012     -2.35763423796030
  C   2.33050952065756     -2.04718163301990     -2.42943595794529
  C   3.70064953744008     -2.24040967520090     -2.42996397169976
  C   4.38054122001828     -2.05590614559483     -1.21841439375892
  N   3.73504145164159     -1.98323530694741     -0.06730907675932
  H   2.29231992402578     -2.37854323274344      1.81218299427627
  H   -0.16737373250366     -2.63058366993392      0.16947173199667
  H   -0.01926893945888     -2.98081536488658      1.87613700108914
  H   2.45813809515224     -4.36397423987986     -1.40227500852232
  H   -0.54320583299023     -2.41022320352992     -3.82746362478082
  H   -1.59840890276358     -4.18274162180376     -2.37885896689803
  H   4.19104200659439     -2.71737685934541     -3.26757195367960
  H   5.46052345944969     -2.12736367308343     -1.16367116082503
