20
Coordinates from ORCA-job 13612optt
  Br  1.07886915877606     -0.15271716829050     -0.24381957312779
  C   2.93226697457536     -0.01837836123283     -0.05682179043943
  C   3.57798119630977      1.15090892267170      0.17752666714665
  N   4.95465892170909      1.11275797421248      0.23413288814778
  C   5.76355896937767      2.26842358583890      0.58848817647077
  C   5.78986754239167      3.32690315971154     -0.50238599892874
  O   6.73192034646205      3.61946445362209     -1.14823463457752
  O   4.60238455631692      4.00856262791587     -0.71146271668639
  C   3.48967358473970      3.65745239537182     -0.06644228479106
  C   2.97333943356552      2.46285645648496      0.34539009058811
  C   1.73124773477208      2.86947637641502      0.92461179589026
  N   1.55571048522406      4.15016281212896      0.85098369924634
  O   2.67784466504515      4.65530044838332      0.21442781847545
  N   5.67899620043364     -0.00436694961780      0.02235022066618
  N   5.12191611370459     -1.09602919497030     -0.19072268165785
  C   3.69665137473469     -1.24597395760920     -0.21566700898852
  O   3.22537168863333     -2.33790687796544     -0.37828367449759
  H   6.78040803696835      1.91005672573177      0.70956557972615
  H   5.40243978305865      2.70386174324366      1.52230506247134
  H   0.97889323320162      2.25818482795397      1.39505836486586
