20
Coordinates from ORCA-job 13611optt
  Br  1.15001469843357      1.49472088598381     -0.05299040346790
  C   2.83899642219822      0.69988310604867     -0.04878454151013
  C   3.04991138204310     -0.65687966225603     -0.04807911405207
  N   1.98897150632579     -1.54409986525423     -0.05013427735202
  C   2.12774236455364     -2.80355957486460     -0.04937997240757
  C   3.29591529010793     -3.80518259986678     -0.04698925556827
  O   2.98009360566245     -4.95460638547389     -0.04802584417617
  O   4.61008425944789     -3.50365306493565     -0.04393613897148
  C   5.06994195475039     -2.21920766834952     -0.04258231980267
  C   4.39927715842038     -1.04433529936376     -0.04452147035201
  C   5.44185824420528     -0.02050784215705     -0.04159442337602
  N   6.68619942890036     -0.56693775152791     -0.03811941757606
  C   6.46650109960496     -1.87566738803882     -0.03871862389712
  C   7.50851148549393     -2.84342403695655     -0.03567991776237
  C   8.34827688066453     -3.69743634463316     -0.03275400797672
  N   5.17842121311598      1.25451015298391     -0.04256377181164
  N   3.88876600675859      1.56259677480263     -0.04618434897221
  H   1.21732459315407     -3.39732842397533     -0.05081817428024
  H   9.09946567923370     -4.45106813400182     -0.03024503278878
  H   3.69772672692521      2.55418312183608     -0.04689894389856
