22
Coordinates from ORCA-job 13610optt
  Br  1.07908644452247      0.25119193876275     -0.30833004977793
  C   2.93956300204855      0.05507810972513     -0.17000525883470
  C   3.60010373713736     -1.12698201411328     -0.11729368827723
  N   4.98859734463635     -1.17207108962968     -0.09192239963886
  C   5.64801319161179     -2.46353365634987     -0.12428389772450
  C   4.88460712754275     -3.52731600875383     -0.87576327530502
  O   5.40954778172220     -4.42178829358019     -1.45172135748387
  O   3.53249872887297     -3.45268566090048     -0.81221159710688
  C   2.92149279466414     -2.44422409257337     -0.08466085356919
  N   1.84944978169289     -2.64996326286996      0.52139557962498
  C   5.82438523621709     -0.04484145617238      0.10141783289222
  N   7.06667250357095     -0.07119066251597      0.35987543744821
  C   5.10064979975866      1.21546840022908     -0.03764680521838
  C   3.73169613091551      1.24254795410801     -0.16260676034314
  S   3.19473615903021      2.86584937037016     -0.26690911764213
  C   4.84177127093802      3.37119079246608     -0.13735484228944
  N   5.71864389302436      2.43183555069218     -0.02206572336570
  H   5.84541425106958     -2.84387074581689      0.88592322994469
  H   6.60088478669564     -2.36560888889955     -0.63944704436114
  H   1.53760601008651     -3.61361920838749      0.39993539517087
  H   7.45427020707142     -0.99933841806507      0.48194871213588
  H   5.09130981717055      4.42287134227462     -0.15627351627873
