21
Coordinates from ORCA-job 13628optt
  Br  0.76653940962071     -0.07827607813545     -0.15910702398291
  C   2.62795539256864     -0.13459206810979      0.02456815986263
  C   3.36210411728567     -1.26023362003059     -0.07720068806134
  N   4.77162796375077     -1.23295316226322      0.11666085465339
  C   5.49596246542674     -0.03210315739085      0.09761741734402
  C   4.95887568546331      1.17250939932284      0.19562971145152
  S   3.23059219252177      1.45783817030077      0.39804187942399
  C   5.78028626319301      2.40766042736234      0.14135363048812
  C   6.56783562913025      2.84114880211439      1.30591365577618
  O   7.17318834081473      2.22469516787026      0.18209160209915
  N   5.55760057231193     -2.31236137074447      0.17737908916332
  N   5.11013708958669     -3.47732241200486      0.14624130835905
  C   3.72981107003397     -3.73988798430397     -0.00655797348512
  N   3.26981170639047     -4.90958595602464      0.10214192810362
  C   2.79108697836516     -2.60843612173141     -0.33750761903146
  O   1.68268696346377     -2.79950892236105     -0.75231615510829
  H   6.56183873320233     -0.16607050527270     -0.01790975034168
  H   5.43208293659014      3.16554709324983     -0.55615011852717
  H   6.53984464837169      2.23137209689599      2.20193876433487
  H   6.79509203485881      3.89303054245682      1.43321229628273
  H   4.03803980704936     -5.54947034120025      0.31995903119538
