23
Coordinates from ORCA-job 13634optt
  Br  6.40194249402187     -3.41632658698224      1.36365311919069
  C   6.20377554950389     -1.60298245589176      1.80871214009440
  C   6.13294316737238     -1.12825830693206      3.06174341295296
  N   5.78303312729666      0.24266509219439      3.24991986072747
  C   6.81778228112888      1.13954047915945      2.72086836121273
  C   7.46419715563675      0.54352872494394      1.49456712884742
  S   6.32692993627192     -0.41491594768389      0.49059548322942
  C   8.77430794018131      0.51544012033850      1.27168144600763
  C   9.73358337223217      0.80672445106922      2.38786770214717
  O   10.61204307538985      1.61399636575308      2.40579622621530
  C   9.50249378352277     -0.19777007116570      3.56085735455053
  O   9.32493115113387      0.15494373794718      4.68819086821686
  C   9.42238956998174     -1.65152751489373      3.11847951147302
  N   8.62688509304180     -2.51781646625212      3.55668602097442
  C   7.70227918642339     -2.32005586240912      4.60306157621222
  O   7.93420413481156     -2.67077347226232      5.72487842378932
  N   6.45905629817555     -1.82818655325888      4.22718521580486
  H   4.92178428502393      0.42313052675495      2.74469198308530
  H   7.55644858628246      1.35983363213137      3.49418933725081
  H   6.34729254435976      2.08714463137549      2.44960483825736
  H   9.18982600193510      0.09844844949173      0.36017635534661
  H   10.09890623661828     -1.93901821776120      2.31007241572992
  H   5.90896502965400     -1.58576475566626      5.04152121868353
