25
Coordinates from ORCA-job 13637optt
  Br  5.47921932559504     -3.84595782759877      1.88997989593080
  C   7.00313603654365     -3.00414335865395      2.70950989151502
  C   6.75907312776867     -2.04504740144008      3.71043803023087
  N   6.07953497178567     -0.95259243553790      3.09735361837352
  C   6.79572931275398     -0.34294991107852      2.12896779412255
  C   7.98975095123681     -0.84088800821594      1.62847509621284
  S   8.29241659331641     -2.61574105861563      1.67511382905359
  C   9.21643134729516     -0.13626536244508      1.95756673301565
  N   9.18645707632982      0.66898835479428      2.95498623907846
  C   9.91806990403124      0.57898272801878      4.10043303257956
  C   10.39876246692660     -0.63748852317205      4.49788603956437
  C   9.85784431915572     -1.21954124060357      5.74797324189206
  N   10.04416242201553     -0.85019823570446      6.93752640476107
  C   8.81822703424776     -2.19327631678319      5.18532865805547
  C   7.65390818793161     -1.63385165568849      4.73556699553499
  C   9.30624882984349     -3.46332926630281      4.80005540701127
  C   9.80390844134004     -4.51429426970832      4.49183284874787
  H   5.24654509384808     -0.50369756472242      3.45400753397844
  H   6.48119276841080      0.66148150148324      1.87195310249708
  H   10.15222954018665     -0.56524684277841      1.58813325134423
  H   9.75030453282949      1.37510836141141      4.81627085328235
  H   10.52706109185159     -1.38758251109652      3.72422815471849
  H   9.42771595916783     -1.35840746835567      7.57209172690835
  H   7.47579009773294     -0.61922198077441      5.08031697088432
  H   10.22128056785526     -5.45483970643149      4.22100465070673
