24
Coordinates from ORCA-job 13639optt
  Br  3.38542389212734      4.29210175788048      0.51322153490887
  C   4.48897936280699      2.77622711629644      0.58701387553295
  C   5.53962130531535      2.64366881785918      1.39549425453956
  N   6.22535595613709      1.37749904426889      1.38000504086427
  C   6.69790892996696      1.14013196059828      0.05345841626266
  C   5.80521238028640      1.06760589672076     -0.94609070432903
  S   4.15254494997389      1.54275773835142     -0.63729609342594
  C   8.11595371475149      1.38994520174179     -0.16554485198817
  N   8.79703777672571      1.85247091103476      0.80503791028385
  C   9.96864066720443      2.52553942315130      0.50216327774986
  N   10.37693092348763      3.50727907942324      1.18902926532793
  C   9.73888727990900      3.97813697131254      2.34465771011144
  N   8.54109211147801      4.32982848890829      2.56260986183691
  C   7.50135624008571      4.23438699310706      1.64477781258848
  N   7.45911847976589      4.64892810889910      0.44779981787098
  C   6.19698276732464      3.70127532481033      2.21765968626267
  N   5.75514774950403      4.18652909780513      3.29340905318828
  H   5.56170399247388      0.64767295981129      1.62940143368963
  H   6.06329755031740      0.86566860175122     -1.97752169234378
  H   8.49151681827646      1.34111226574534     -1.19352523155032
  H   10.53310481016542      2.24537967160309     -0.39211747669680
  H   10.45434144337845      4.14053366753543      3.14895476869982
  H   8.35201485322863      5.06058406442031      0.17333637722152
  H   4.84382604530914      3.78873683696430      3.52606595339435
