24
Coordinates from ORCA-job 13638optt
  Br  8.39870053494279     -6.82055464782951     -3.75260596449349
  C   8.43123615870935     -5.37249574240774     -2.55322450453499
  C   9.54763531447004     -4.97525477231803     -1.93101047530429
  N   9.47915398703205     -3.80706644213629     -1.14542964152409
  C   8.87458592411949     -2.68722394886476     -1.72098760909552
  C   7.70825204935762     -2.83704250906804     -2.36388627132731
  S   6.95133273763530     -4.41570428392679     -2.42380075003725
  C   9.55197694662808     -1.39098461220839     -1.74314681686802
  N   10.68846122243868     -1.06255964160926     -1.28968036012084
  C   11.68284315242939     -1.78374929348688     -0.66040147523017
  N   12.36867636866748     -2.77270487214813     -1.07801504882548
  C   12.07582367339349     -3.41197550095614     -2.29372725500630
  N   11.97380701772482     -2.89928507744526     -3.44278737561227
  C   12.00680120982027     -4.91858664481165     -2.17448351971920
  C   10.85993353316088     -5.60622141172418     -2.07651232698898
  C   13.26538773409196     -5.58279758630801     -2.25396519817045
  C   14.34007611767407     -6.11130775588682     -2.31743014037991
  H   10.28485088869991     -3.64926394578999     -0.56434740284939
  H   7.23158879653108     -2.02475571777304     -2.89447669574743
  H   8.98037815058974     -0.60269047157779     -2.23216878198932
  H   11.97037329704393     -1.34632634541318      0.29422158594842
  H   12.08427537609742     -1.88487837115659     -3.40284145590187
  H   10.89002375019822     -6.68730971260717     -2.12213638033367
  H   15.29082605854375     -6.58426069254627     -2.38015613588816
