22
Coordinates from ORCA-job 13648optt
  Br  0.91970281232284     -0.13466317169162     -0.07339935713381
  C   2.76964328872772     -0.14227799523091      0.17601628322284
  C   3.51663263464982     -1.24269232439293      0.10813353921573
  N   4.93496845507758     -1.18567214598399      0.30430882652033
  C   5.64612775450487     -0.04804013333479      0.00568637808137
  C   5.10023196828127      1.17262523748377      0.03897596915020
  S   3.43463104507168      1.44128648480608      0.56572623884278
  C   5.88969585647766      2.34081273284903     -0.39939306238773
  O   7.06641107893256      2.29276620138607     -0.64728658279574
  C   5.43207053047762     -2.48158308542940      0.18655934391267
  N   6.79095333310744     -2.65910998021777      0.32021844822459
  C   7.48503716820854     -3.74540300732380     -0.17116949083323
  O   8.64307200587080     -3.93865769942883      0.06401739285469
  C   4.45524954663511     -3.37922013951071     -0.05341426899458
  C   3.18185764916187     -2.67070906552712     -0.15098320675119
  N   2.00052818793493     -3.09793352548687     -0.35128468989539
  H   6.67348208805603     -0.16542742726168     -0.31996655940586
  H   5.32426736850004      3.28579233239254     -0.48383396174758
  H   7.32133632253971     -2.01757141462011      0.89596919199007
  H   6.86860638165671     -4.39233416839592     -0.81105885268747
  H   4.56622613390563     -4.44974565073697     -0.09201826456827
  H   2.00226838989950     -4.10824205434407     -0.48280331481444
