21
Coordinates from ORCA-job 13649optt
  Br  0.89046818617243     -0.21035221017601      0.64611499157750
  C   2.74017195667489     -0.17305519380842      0.34832226721287
  C   3.42140304254047     -1.18734303389611     -0.20045475434665
  N   4.81456663630952     -1.15498108478755     -0.37505010226952
  C   5.62628401585239     -0.08538711053340     -0.03435186595835
  C   5.15258222572774      1.02835477892038      0.50708415793285
  S   3.45551633980486      1.32224254073180      0.88668575323538
  C   5.25260661894310     -2.37028574756294     -0.88734199573206
  O   6.39320626118317     -2.65447284723956     -1.12429466268480
  N   4.10386737752162     -3.17959154316643     -1.06955412399228
  C   3.06500329541065     -2.51777959321145     -0.68989520888483
  C   1.72472349698842     -3.13597888836151     -0.75876906074013
  N   1.61142081512684     -4.43076295447073     -1.38850606570197
  C   1.54812905750719     -4.38199357297051      0.05749807085719
  C   0.27286843501826     -4.64942318552909      0.68373545266598
  N   -0.72590640909646     -4.83736438368226      1.21213722240693
  H   6.67524046321908     -0.24154338532649     -0.24632018005753
  H   5.80312692896101      1.85020467139790      0.76441565807508
  H   0.87327639453938     -2.48556907945792     -0.88557035301506
  H   2.53530380771810     -4.74958456052224     -1.67645805126685
  H   2.41114105387730     -4.70833361634742      0.62557285068626
