18
Coordinates from ORCA-job 13658optt
  Br  0.95680474589992      0.33125511641958      0.16239783957902
  C   2.81488535137068      0.15604485607318      0.05345291505028
  C   3.62862472436258      1.19380306241147      0.15406741018812
  N   5.03233846819001      1.14465643563634      0.09688785636868
  C   5.61153837168060      2.38113810436251      0.27969476128284
  C   4.78883487714397      3.41311762286824      0.49531874851403
  S   3.12666297831097      2.90531663224889      0.39984085013901
  O   2.44291124253132      3.02955697716334      1.65188499268617
  O   2.48478935622485      3.39525119342589     -0.78326518747772
  C   5.68614974654242     -0.01025334208720     -0.37171638671768
  C   5.04948418399189     -1.17397604136491     -0.53297237804429
  S   3.36231439359955     -1.49797667535946     -0.18697130392134
  C   7.07356044214682      0.11702723347780     -0.67577997983493
  C   8.24245735131197      0.23320310548937     -0.91367196134004
  H   6.68983250149058      2.42993728217652      0.24357284780549
  H   5.05471609792380      4.43880295769414      0.68123952696947
  H   5.59459999317844     -2.02235531316328     -0.91867363548789
  H   9.28049517409947      0.32345079252756     -1.13230691575920
