22
Coordinates from ORCA-job 13650optt
  Br  1.82167419283791     -2.83031290596044      1.32035656834178
  C   3.24849941149734     -1.70983846198427      0.81698309323547
  C   3.66294721180950     -1.50409940515858     -0.43858016886153
  N   4.69498765981622     -0.55734455207813     -0.67664461411289
  C   5.84680234117297     -0.74344913033076      0.06527250638408
  C   5.73861520766316     -1.09233854360710      1.35352920693032
  S   4.13523471740919     -0.91503402757593      2.10211224799096
  C   6.57599766793622     -2.17336522759159      1.96953475036239
  O   7.34918768946009     -2.08116843245077      2.87269835225282
  N   6.18782754434803     -3.45853981936723      1.48063478096843
  C   5.60851166132809     -3.67226114332378      0.24196799619068
  O   5.99392065304534     -3.20900195712490     -0.78937172162319
  O   4.53183191348512     -4.49408330232626      0.34118183226823
  C   3.72723802028356     -4.70483308291211     -0.75643413097214
  C   3.16493610428140     -3.80600993182611     -1.55781030698114
  C   3.33623030024770     -2.32763862367036     -1.64763894584935
  O   3.30106017356683     -1.79625964987740     -2.73163356033623
  H   4.82374706550829     -0.37658962776409     -1.66331232831440
  H   6.78400802760781     -0.77994621989207     -0.47666981021452
  H   6.10876035957401     -4.18625008667564      2.17782644288249
  H   3.52772542901505     -5.75949366990512     -0.88817125314820
  H   2.56125664810606     -4.21014219859730     -2.36083093739406
