24
Coordinates from ORCA-job 13667optt
  Br  2.18694497015486     -1.71658431459990      0.84435487777970
  C   3.01940083257592     -0.17644317764095      0.12509555652614
  C   2.43865224360690      1.05630753396913      0.30761075735801
  N   1.25568471234400      1.17051514626578      1.00228129570775
  C   0.35976957291750      2.22668296143047      0.68408535035019
  C   -0.02683111928371      3.12488583083689      1.57794990962143
  S   -0.58125637362870      4.71271177674810      1.05845996333195
  C   0.83933435169666      5.28473310266052      0.11219217386601
  N   0.92608243088511      6.53180728031827     -0.03663705300274
  C   1.73743220268541      4.28086676560976     -0.58373097822757
  N   1.70417555438901      4.09855262628506     -1.83762351111820
  N   2.58965532321050      3.55732667618527      0.22494885994004
  C   3.09492408101407      2.27955769895491     -0.16139790863330
  C   4.19151778834299      2.25218922951182     -0.93619843265446
  S   5.04486994727319      0.86944771714624     -1.44607679261473
  C   4.22621266169756     -0.48301631630330     -0.60752684873606
  O   4.71188779963631     -1.57708199480969     -0.74794084797095
  H   0.85266495500984      0.29138037680064      1.30029761627606
  H   0.13149106211050      2.35962312057254     -0.37029209834962
  H   0.20399346326469      3.00218739426292      2.62965272602542
  H   1.70308105615559      6.78129762320599     -0.64995560963010
  H   1.01123570432155      4.69636164711684     -2.27940033044254
  H   2.48064907839257      3.70082744071440      1.21635374240693
  H   4.61242770122763      3.19086385475827     -1.27250241780936
