25
Coordinates from ORCA-job 13661optt
  Br  4.06156527494570     -1.70469339759740     -2.89371713740795
  C   4.69404763378298     -0.73235984223858     -1.41437428187108
  C   5.57896680538418      0.27229798595413     -1.52607494582527
  N   5.97778055994615      0.88049715202906     -0.32696214397391
  C   6.08174268830169      0.06605136940788      0.79901186990030
  C   7.10760520161072      0.07376837742409      1.68059151569975
  S   8.61234126693836      0.98708436890259      1.68585391941710
  C   9.31049430935618      0.83766995341163      0.05758437099097
  C   10.45189894830730      1.56919563619215     -0.31871876435576
  C   10.76984155195803      1.60153417237894     -1.66085207139757
  C   9.93944240152703      0.99942534790782     -2.62136659887554
  C   8.85137834965273      0.30757145556743     -2.14358580654807
  C   7.55109682455784     -0.19121714940121     -2.72062415018103
  C   6.53967582439827      0.67766527333442     -2.57381973110944
  N   8.62233533341026      0.16832867204675     -0.82906528156438
  N   5.02484195065352     -0.82753213120702      0.97055205048217
  C   4.35424562981113     -1.16264604855405     -0.07142740304251
  H   6.73283924129211      1.54422101698160     -0.41982391421350
  H   6.98594159774354     -0.55294252428538      2.55204564093129
  H   11.03421450863074      2.11361693566556      0.41234516521891
  H   11.64429031994444      2.15205038745392     -1.98477312077445
  H   10.12609539096631      1.11180281848128     -3.67952303482979
  H   7.36241340773914     -1.25068479851215     -2.58311404213558
  H   6.77198964190792      1.73971135399299     -2.58461410145341
  H   3.53091533723362     -1.85941638533644      0.05845199691876
