24
Coordinates from ORCA-job 13664optt
  Br  4.01640238151830      0.95404777142095     -2.80766129364072
  C   4.91879749879827      0.52588348391364     -1.22105369317948
  C   5.81094613485969      1.35581418951995     -0.64610546755464
  N   6.42156635560797      0.93260196303375      0.50471583656086
  C   6.49985196728964     -0.43435265462908      0.76927660180538
  C   7.60944635650197     -1.01894871165109      1.27411137398972
  S   9.16891555650523     -0.20134558853651      1.31898519320969
  C   9.06960259111938      0.36039166329569     -0.35592473182761
  C   8.97435255814376      1.64395108649851     -0.69441743162150
  C   8.31415631159661      2.02725667611294     -1.96374949809970
  N   8.48099187048513      1.59333761363485     -3.13402816345579
  N   7.28927699211082      2.99827536531271     -1.74228189693417
  C   6.19832614577879      2.70640451280332     -1.17540052673636
  C   5.22007552870128      3.83957916657134     -0.97963842196127
  O   4.21842556621988      3.71990703516817     -0.33972101345606
  N   5.37666076812483     -1.17196115951018      0.41686752750178
  C   4.63728094423717     -0.71146112706087     -0.52502551369882
  H   7.11092561934402      1.52249242141497      0.94427076409429
  H   7.56740095881515     -2.06307611704212      1.54503109272153
  H   8.82673903233058     -0.41753295460785     -1.07373242624568
  H   9.10849225175107      2.42401363451670      0.04832615460395
  H   9.26434688862093      0.94263870318564     -3.16322113184946
  H   5.53623104824090      4.78111953331407     -1.45817229064859
  H   3.76278867329852     -1.28603650667952     -0.81645104357735
