22
Coordinates from ORCA-job 13662optt
  Br  1.25463346506394     -2.27476197652197      1.34787006588010
  C   2.87353188497529     -1.51603493801682      0.78402077186404
  C   2.97012780403667     -0.91390396910512     -0.42661950736954
  N   4.16001685087101     -0.32780749251394     -0.79518283119414
  C   5.32809914849408     -0.76775052225539     -0.24733045143464
  C   5.32151713184092     -1.56467094818291      0.84293678835258
  S   6.46108802222044     -2.94722272375960      0.83740310214443
  C   5.22686038534006     -3.82031303461139     -0.11385572919858
  C   4.19634515496097     -4.51044885400663      0.44475177639893
  O   3.11979232553742     -4.50598698126360     -0.36255253285763
  C   3.44522528483124     -3.76395355191637     -1.45682361557933
  S   2.15971433326980     -3.34510780873505     -2.55408717383365
  C   1.62479118571367     -1.69513636135853     -2.17179847024392
  N   1.95697983642105     -0.78170096241004     -1.36652028669899
  C   4.74492404419075     -3.38729511857550     -1.39385481954407
  C   4.06641069836778     -1.76303445047175      1.60589862596958
  O   4.02390577710773     -2.24764156709374      2.71545132984319
  H   4.16377403863877      0.21587393676499     -1.64387799031099
  H   6.22491611939295     -0.57153460400159     -0.81953169055389
  H   4.07201410841999     -4.96262377399248      1.41449289525832
  H   0.81817391836133     -1.47202082719839     -2.87184892425470
  H   5.26915848194406     -2.78492347077416     -2.11694133263708
