23
Coordinates from ORCA-job 13671optt
  Br  4.47225916684191     -0.63789134384850      2.11141774316343
  C   3.10120335210324     -0.50694142976407      0.85045463435812
  C   2.36429645160142      0.61458418750154      0.70252725295578
  N   2.60578883514705      1.74299669149423      1.52683713452530
  C   2.46196281310490      2.89559879957757      0.81826079414701
  C   1.70098175848065      3.96017387322939      1.11663247806577
  S   0.84686190024875      4.37473730727223     -0.32287025120401
  O   -0.14748374829159      5.37486140647470     -0.07433497949258
  O   1.72224551456558      4.44516292766173     -1.45295588264239
  C   -0.10253339924264      2.79302729251469     -0.46466413798466
  N   -1.35242089434935      2.80822877385446     -0.42290279129491
  N   0.55330279425545      1.58516516581826     -0.85848424988385
  C   1.36060774916305      0.56013216342360     -0.37530313784613
  N   1.19511561507672     -0.53495959454491     -1.04823125894235
  C   1.91691509390597     -1.67268401966890     -0.81429721578614
  N   1.80457727651104     -2.79206090051524     -1.36514060240092
  O   2.93179262974667     -1.61052686974914      0.16371583664592
  H   2.15563214827639      1.71939390278344      2.43398548454617
  H   2.87432430004026      2.83083926908253     -0.18420473649503
  H   1.13548590865079      4.06363456375520      2.03377837765853
  H   -1.69284036907117      3.76337453443433     -0.28653372551841
  H   -0.03228099644706      1.15154777339974     -1.56643558379707
  H   1.06320609968195     -2.75339447418693     -2.05825118277759
