25
Coordinates from ORCA-job 13678optt
  Br  1.23696050261850      0.47039405476004      0.66595853039015
  C   3.03546346023600      0.27865449028549      0.20352246762829
  C   3.75091154672127      1.31413080630842     -0.29430342438529
  N   3.09536477559168      2.53625596912501     -0.53754982777298
  C   3.43014878797722      3.56457242429396      0.10739796387983
  N   4.55659956583907      3.55034681681237      0.94866196379915
  C   5.10267765615470      4.66703788297003      1.67698559216719
  C   5.67374297154540      4.28025655861124      0.37118113326000
  S   6.98709669053674      3.15184542447576      0.00315667963933
  O   7.97961785083530      3.86265837317906     -0.75070324311227
  O   7.33157627823675      2.40251919911993      1.17252455560884
  C   6.08430958482413      2.11749143649765     -1.18085709016227
  C   5.15930221140567      1.08748265149104     -0.60668525681986
  N   5.70446577049466     -0.06745547246184     -0.43394187464774
  N   4.97567916373806     -1.05716135367773      0.05704509451854
  C   3.63699739136936     -1.03105873724798      0.43415658303430
  N   2.99293574223672     -2.01670163049870      0.91457348939349
  H   2.88403870361962      4.50024708377478     -0.03183133271590
  H   5.60499735104613      4.38147368347763      2.59142776678441
  H   4.56310305665939      5.60925670250278      1.68511283868904
  H   5.47811147847531      4.93912214559822     -0.47121551669946
  H   6.88528265546902      1.61519037685758     -1.72276910797414
  H   5.58673966049229      2.81335228777661     -1.85837399400081
  H   5.48368635518055     -1.92079516941572      0.17219874238671
  H   3.56819078869644     -2.85111600461562      1.00332726711145
