17
Coordinates from ORCA-job 1367optt
  C   1.89108426105206     -0.66592964607464      1.13956389144635
  C   2.85786771970644     -0.30924569421941      0.00989040351587
  C   3.02848994581961      1.17126694309072     -0.13040323335915
  C   4.17503712638426      1.82116697127402      0.02174965371893
  C   4.33171917594197      3.31358146561604     -0.06252461705327
  C   4.58633238784772      3.85505670394261      1.32569749073241
  O   5.62771296419574      4.32136683557746      1.69167507103339
  H   1.75702200192877     -1.74500666202202      1.21500463202633
  H   0.91151319640795     -0.21569536646682      0.96974233762029
  H   2.26674551479334     -0.29906786948957      2.09538463728878
  H   2.47642106386257     -0.71866248002107     -0.93010772978330
  H   3.83106300321403     -0.77121455831558      0.18735528007812
  H   2.12923097379616      1.73969299881549     -0.36354505810738
  H   5.07568112968552      1.26123077562390      0.26038602890793
  H   3.41044530956052      3.75950196182176     -0.44621277931751
  H   5.16973475558801      3.59749155304837     -0.69971374667436
  H   3.73189947021529      3.75846606779874      2.02505773792657
