22
Coordinates from ORCA-job 13676optt
  Br  1.26151207986083      0.08036685177273     -0.39562384625139
  C   3.12240827226845      0.05727857872100     -0.16736548850275
  C   3.84976503897233     -1.13914122773124     -0.14469669827171
  N   3.15248681265692     -2.35130919955254     -0.27028452794185
  C   3.80179571462769     -3.43873043520280     -0.23079898824861
  N   5.18819481752374     -3.61599923114169     -0.04789560440895
  C   6.03864669796775     -3.22774754876352     -1.17721408640047
  C   5.97550933797164     -2.38603384934032      0.04107807308851
  C   5.23728338976951     -1.09792008687590      0.03388360801781
  C   5.90616304455231      0.10295801239788      0.21445733932607
  C   5.17822742628420      1.27912533034487      0.18344382253937
  C   3.80401792397164      1.24838056382101     -0.01289619343074
  O   3.19247043342621      2.46342285019530     -0.02877012462281
  C   4.06105959367030      3.50871269791232      0.15507813422122
  N   3.74355969252700      4.71579595691833      0.17861749026025
  S   5.72255085245634      2.92829448830806      0.35947639726631
  H   3.25427889904588     -4.37338070354911     -0.31252734589008
  H   5.53869428068634     -2.84961311428207     -2.06119079708384
  H   6.88941427715688     -3.87330458307839     -1.34491989566293
  H   6.80336675766186     -2.45027163731148      0.73817262473992
  H   6.97748057365268      0.11493099770465      0.37036957448726
  H   2.74311408328945      4.84518528873291      0.04260653276941
