24
Coordinates from ORCA-job 13685optt
  Br  0.83867059363617     -0.62329542854084     -0.26520998460161
  C   2.66084772250557     -0.14832049480790     -0.32931914842778
  C   3.63776931671392     -1.11318641513520     -0.05737454288767
  N   3.30792059780930     -2.42107880607296      0.27901804048026
  C   4.25938330981685     -3.18862499060584      0.63582274985635
  N   5.59701403212762     -2.84944923760869      0.68400274476821
  C   6.09043870589777     -1.61328429575203      0.06600769318513
  C   7.19052993353855     -1.01373337476606      0.92809468397132
  C   8.26902797318227     -2.03165853802088      1.17810402708180
  O   9.42476890430209     -1.77332463527159      1.38379328171079
  N   7.83299069559953     -3.34791955995236      1.15522849446883
  C   6.52445966353645     -3.82105472117650      1.08093631254632
  N   6.16100540281558     -5.00656577716048      1.32726947453095
  C   4.94612908704510     -0.65270734177148     -0.14370723829067
  N   5.26118628138820      0.59835690235037     -0.45118871707956
  C   4.24365829414086      1.41582815095576     -0.68348919902950
  N   2.95499009522007      1.09376020990333     -0.63717949901227
  H   4.05452050007102     -4.20317654954987      0.95176659665093
  H   6.51228279155573     -1.85137493255345     -0.92013816921346
  H   7.63071368652605     -0.14280188391531      0.45036358029436
  H   6.77974970939015     -0.70200006620480      1.89240094568929
  H   8.54745053852264     -4.03102940442703      1.36615514932175
  H   6.92419579472674     -5.58778385037340      1.65621768393869
  H   4.48029636993169      2.44242504045723     -0.93557495995247
