22
Coordinates from ORCA-job 13684optt
  Br  1.87647224547522      0.73176158725877     -1.12198927853074
  C   3.50041985518589     -0.09161955413348     -0.75305906907035
  C   3.62618373123831     -1.34699139047600     -0.26883752872770
  N   2.68529904685425     -2.28871031658117      0.14086086088061
  C   3.37182508928224     -3.24252194203710      0.65939678819856
  N   4.75171295128865     -3.04199637704763      0.58801372779315
  C   5.93222802721202     -3.54902490183047      1.16447979876792
  C   6.95780003282329     -3.65813879710432      0.28119775983822
  C   6.71460143948331     -4.29633794957801     -1.03287715776426
  O   7.53030301868132     -4.34391637952467     -1.91351430991900
  C   8.00659347431541     -2.64824357508310      0.40469935898857
  C   7.49781946126791     -1.41033085566997      0.19904412585260
  C   6.10415821203615     -1.05034407387607     -0.09783241732791
  C   4.94654751666375     -1.79845846272921      0.01975889577743
  C   5.90760367889397      0.29380871783001     -0.61607100248442
  O   6.72538921637101      1.14063624363190     -0.79771877614593
  O   4.56700226223413      0.65549164015881     -0.95843414958722
  H   2.96873966189510     -4.14975907976179      1.08491434466188
  H   6.07446978833898     -3.32901623506132      2.21631798798544
  H   5.72782492212565     -4.78800080164237     -1.13351412966636
  H   9.07214288236185     -2.82750414597395      0.42700029668556
  H   8.17886348597149     -0.57278335076882      0.09516387379396
