20
Coordinates from ORCA-job 13692optt
  Br  1.23526942339562      0.21180788289643      0.06441500355655
  C   3.09652193042948      0.05298890555931      0.06506022772785
  C   3.92362211167246      1.13752181751625      0.06540262785267
  N   3.77767698387079      2.53463432910912      0.06568892780424
  C   4.97447267120752      3.02290328071576      0.06613233614325
  N   5.97414556894280      2.04717665994290      0.06625819709084
  C   7.35990771051138      1.75261265511776      0.06736436819104
  O   8.26371965022046      2.51490956977137      0.06809255268323
  C   7.41632742318396      0.13593090673166      0.06690534562956
  O   8.45326224353428     -0.45338013974333      0.06711149660642
  C   6.01168499799368     -0.29816218365144      0.06607621199140
  C   5.16863763097584     -1.45681203296078      0.06578904226875
  C   5.33702235427943     -2.80807391673293      0.06592722718997
  O   4.13130187700436     -3.41683633313421      0.06570277479042
  C   3.16530411127646     -2.49568510948413      0.06527919052107
  C   3.71598555871526     -1.24248883080153      0.06527866465808
  C   5.30246213037504      0.85402008404853      0.06579935768659
  H   5.21749300448147      4.07414150169750      0.06648155241322
  H   6.20213088470993     -3.44578307960515      0.06619760106269
  H   2.14905173321976     -2.84742596699310      0.06503729413218
