24
Coordinates from ORCA-job 13699optt
  Br  1.35640043993543      0.46388381619570      2.85961988081092
  C   2.87383678440973      0.14458612827944      1.81639487630180
  C   3.43659377680908      1.04258827317697      0.99115633620870
  N   4.77688566700372      0.79334526771622      0.67002615859152
  C   5.47413641440462     -0.12510434370591      1.42402563869787
  N   4.90301908550727     -1.10477954571271      2.02317155940685
  C   3.54232498319521     -1.16446174180650      1.68990779926409
  C   3.04778552600886     -2.15822155686947      0.91193042664230
  C   2.13558117022412     -1.70107919747353     -0.13791818059388
  N   1.40331339199577     -0.62095140545956      0.01478813419398
  C   1.50651557000657      0.07035609984253     -1.13191080496897
  O   1.10072455315645      1.37362388828232     -1.15472705998048
  C   1.54067130896218      2.25145277600582     -0.18966812537614
  N   0.88437547708848      3.29046937204616      0.07056702613590
  N   2.84489194084504      2.14720876672958      0.36011784382383
  C   2.14238311863341     -0.65250650900837     -2.09940560876471
  N   2.49719264277996     -1.82621546785319     -1.45772175430689
  H   5.25512982700381      1.45152761466096      0.07611195207218
  H   6.54718928074464      0.01222178553222      1.48728599149064
  H   3.64876660435065     -3.04509708219114      0.75701984129654
  H   0.03348864695994      3.32454975931713     -0.48376630201414
  H   3.06083658813440      3.04629436284598      0.77563805339718
  H   2.34190218789487     -0.46406709403807     -3.13831516904177
  H   3.15105501394573     -2.50062396651259     -1.81632851328733
