21
Coordinates from ORCA-job 13694optt
  Br  1.81784148833183     -2.26809615065465     -0.34479145990653
  C   2.87486947821648     -0.73988321046881     -0.17507537597837
  C   2.36942609685014      0.50777488873115     -0.02257819909317
  N   0.99258472992102      0.61840079316851      0.09390694226221
  C   0.29139332490886      1.65768368291748      0.17881090385309
  N   0.71727203764555      2.98193561878711      0.15948121223051
  N   -0.24681593774724      3.97196456980550      0.21563528509157
  C   0.32182296930259      5.11137064344827      0.13367349371878
  C   1.78633561406102      4.98187487515386      0.00538701117463
  N   2.71077298613681      5.82743345227672     -0.11814403131086
  C   1.99956533253307      3.48886922829002      0.03957388019092
  N   3.13635144134657      2.93904898209721     -0.02446892731640
  C   3.39745356411506      1.56956952052507     -0.00714453885876
  N   4.65130915295373      1.29306677928620     -0.00627427297441
  C   5.09961301323984     -0.01141657070472     -0.01541889763973
  N   6.28530594856407     -0.39381168856919      0.12812235312657
  O   4.16744171593361     -1.02256438971286     -0.23921537780459
  H   -0.78721375499562      1.58841911933058      0.27595086759396
  H   -0.25727577962262      6.02310060649217      0.15576647043724
  H   2.34482746557797      6.78099468946539     -0.12246768913825
  H   6.87811911272720      0.42326456033496      0.24827035034159
