23
Coordinates from ORCA-job 13703optt
  Br  3.28435449903993      0.04936689397080     -3.17566989761243
  C   3.51014323179215      0.38559921615046     -0.19042841756252
  C   3.74757231958263      1.73731724031660     -0.13744590291078
  N   4.93232289131590      2.20636442500204     -0.55575179131440
  C   5.85407912987960      1.37937370539227     -0.94448631694637
  N   5.74728994291689      0.03436840077948     -0.84364908224217
  C   4.56631748710026     -0.50684965311555     -0.51371564916367
  C   4.10797427345344     -1.82724859750039     -0.37646367497643
  C   2.78607800194675     -1.70982942178612     -0.04897135191580
  N   2.41436025276311     -0.40066443369085      0.08437762546901
  C   1.10857089949912      0.03027963037162      0.26025479789155
  C   0.71868408309081      1.29177556836688      0.46665156146909
  N   1.46750125181234      2.46166120033939      0.59206015699609
  C   2.78267938701075      2.79571974163596      0.32626816118937
  O   3.14875310259488      3.92662680475064      0.48618993907137
  C   -0.69174301506644      1.50437493940905      0.62885595720497
  N   -1.81030163361997      1.70327582631797      0.78439760176343
  H   6.79191613938694      1.75917122688436     -1.32667745831449
  H   6.49648187150457     -0.55236433656527     -1.18470182895509
  H   4.63846583445815     -2.73939152700893     -0.58270170513601
  H   2.04686063809393     -2.48499699621858      0.07517500902093
  H   0.36144240710338     -0.74473688933903      0.19450825191980
  H   0.94119700434082      3.28080703553719      0.86692401505459
