23
Coordinates from ORCA-job 13704optt
  Br  3.33443766256282     -1.55121866449689      2.45982085499705
  C   4.13613130393151     -1.13184298542544      0.81635749995460
  C   5.24846149272449     -0.37302322112941      0.71621003756480
  N   5.71525469505203     -0.17715400925187     -0.57320084812470
  C   5.68857156316395     -1.34448194769076     -1.32664835920410
  N   4.40574071623424     -1.84408432290074     -1.48820827293085
  C   3.65119811960291     -1.73140859145446     -0.44134267201698
  C   2.31935886030550     -2.26174440264700     -0.48843063884456
  C   1.20273978966562     -2.69237209443670     -0.49449220701261
  N   6.75366216039419     -1.95589841928788     -1.69050864215588
  C   7.79143965952007     -1.75614696643755     -0.73534700643916
  O   7.83658473453522     -2.45135413654284      0.24297773968959
  N   8.70112307297607     -0.70879224100938     -0.92080101164817
  C   9.41468018559538     -0.16934307081900      0.16686376682439
  C   8.76769833873428      0.25289659415187      1.27491642461769
  N   7.40762903134400      0.20578063278120      1.20144341291806
  C   6.30120887660030     -0.04134415091282      1.74023649534314
  H   6.62302977305494      0.27987931683828     -0.54805127856676
  H   0.21189962150628     -3.08048667738790     -0.50904519211767
  H   8.93720140272366     -0.44423072637659     -1.86449864598835
  H   10.49533329501046     -0.14233833864294      0.10203706524984
  H   9.31221793146019      0.58607382319396      2.15334347519713
  H   6.08239771330176     -0.20036540011512      2.79736800269348
