23
Coordinates from ORCA-job 13707optt
  Br  1.50692195618090      0.09806451636780      2.46669153771608
  C   2.94130605610049      0.03995308899602      1.27257095661629
  C   3.44831355478136      1.14347706962536      0.68500796971096
  N   4.71366939336849      1.02924860778171      0.12096435109928
  C   5.47212916939274     -0.07423465575571      0.45415003987531
  N   4.95385886367176     -1.17295183806660      0.83680054655997
  C   3.54905522599009     -1.20876835877439      0.79617572023038
  C   2.91328849508606     -2.23849477992620      0.20303483711825
  C   1.55449035038025     -2.23323944095673     -0.38886795663205
  O   1.07834415160201     -3.20360986167032     -0.91708710189290
  N   0.84774724090512     -1.00261247972566     -0.35530247024780
  C   1.35362824675677      0.02555814579808     -0.87825246246464
  C   0.77501334109271      1.35948533848510     -0.60888681653901
  C   1.44728845399441      2.35237318724150     -0.00475942461764
  N   2.76045755000450      2.32784250301575      0.48376957493519
  C   0.78074321347830      3.60469673343152      0.23655258736744
  N   0.28732683671327      4.62369468648096      0.41788385068107
  H   5.12084654364925      1.81912713925038     -0.35311494196751
  H   6.54735771871395      0.03583049215498      0.37147942035091
  H   3.49864654158234     -3.11113270111128     -0.05729404222419
  H   2.28185670433293     -0.01373199873118     -1.46254863371612
  H   -0.27443273173239      1.51781759529028     -0.81516078440095
  H   3.17814312395464      3.21060701079861      0.73619324244169
