24
Coordinates from ORCA-job 13706optt
  Br  1.01452402370368      1.03447071855183     -2.08489832760376
  C   1.94056316997175      0.63929903361433     -0.49678221132407
  C   2.77847991399062      1.50488503758721      0.12762633623699
  N   3.80740837733760      1.04373585557984      0.92843108155318
  C   3.93756577293446     -0.23505174883571      1.02230669097021
  N   3.00132299729992     -1.12088775055566      0.60321051695540
  C   1.73831299817868     -0.60467774495368      0.23251203210677
  C   0.60400863199446     -1.09200571480852      0.75379095439745
  C   -0.73338165784097     -0.48750202009573      0.89862822589031
  N   -1.55635615345582     -1.13617794813764      1.62200016816422
  N   -1.13061465948116      0.72274547862120      0.29249668768355
  C   -0.65145327045060      1.86896094985650      0.39940314742454
  O   0.42027872596309      2.21808695102431      1.17319900150292
  C   1.24408318702058      3.22635347847651      0.72116681243760
  C   2.44476435079970      2.94070172576268      0.20425482410950
  C   3.41191051413788      4.02766267812323     -0.09696413012035
  O   3.15425970667713      5.19690629664130      0.00393773496899
  H   4.83894016918162     -0.65935029352505      1.44973014732158
  H   3.08062006309404     -2.08993492831918      0.87442976745039
  H   0.67300852116361     -2.00761538648633      1.33000776304462
  H   -2.43870267417340     -0.63025145061901      1.68632576175849
  H   -1.08120667020218      2.69895351086978     -0.15945444047060
  H   0.90164553960867      4.24307942434885      0.88262663480563
  H   4.40601842254659      3.68261384727894     -0.42798517926358
