22
Coordinates from ORCA-job 13713optt
  Br  1.24116895239546     -0.53769120023941      0.48446405049393
  C   2.90258622500219      0.28081563581920      0.39036722407307
  C   3.44079490072879      0.66881487572545     -0.83428623186702
  N   4.86525478090390      0.85898920860523     -0.77612693953523
  C   5.36370169455008      1.40468905772709      0.35598559752684
  N   4.63631692965610      1.72583263189200      1.36174093267547
  C   3.32885055253066      1.24534632203005      1.38836776890946
  C   2.32269321138469      2.04186294749732      1.85205912523815
  O   2.60391284060065      3.36559090350721      2.09412708171927
  C   2.96845465810335      4.14779190722070      1.02500733027928
  N   2.47474296144638      4.22230986930096     -0.12135215010272
  C   1.28631432709891      3.56659763713984     -0.57130245113925
  O   0.21698341560243      4.07653223096838     -0.36089189625065
  C   1.48095572518960      2.23868906504311     -1.16756804547165
  C   2.73844584903744      1.78187561609325     -1.41095906116833
  C   4.07758979940384      5.01709257355031      1.38832629807779
  N   4.94972537023643      5.70587662762441      1.66161303091264
  H   5.46735591265407      0.39201207009355     -1.43556728783504
  H   6.43331225691572      1.58925591351813      0.37980622813901
  H   1.29860591932308      1.74582892845509      2.00829255551109
  H   0.60690262502552      1.60621702333543     -1.10759790822894
  H   3.48133109221066      2.53367015509268     -1.67750525195716
