30
Coordinates from ORCA-job 13717optt
  Br  1.53091869291391     -0.12015005824326      0.72452763414653
  C   3.33935036438967     -0.15663393118221      0.21160543471177
  C   3.94515928459194      0.94579915066901     -0.26395743850296
  N   5.27532726022054      0.88613732750086     -0.66270084114151
  C   5.87778322181866     -0.34214454810213     -0.58460447989708
  N   5.36144933559658     -1.43027747773789     -0.16805871233414
  C   4.04449272024155     -1.43896050680606      0.31916882725692
  N   3.48826356925990     -2.46706507734759      0.81057394275980
  C   6.17316697947370      2.04104236968794     -0.88137469329381
  C   5.61912743345953      3.20945426939394     -1.70135488292343
  N   5.22004643294779      4.22546108276031     -0.72373274206523
  C   5.52622922806045      3.81450149760729      0.64839070095739
  C   6.58994329727736      2.73094191959624      0.42314530725459
  C   4.32033625218048      3.33013386463134      1.50628835579489
  C   3.01058549207812      3.13014419734162      0.74438230923645
  C   3.15172816879578      2.23253268146895     -0.45476116489433
  O   2.66175318103192      2.46192978125265     -1.52617637266869
  H   6.90876583069172     -0.35420784139049     -0.92687368715067
  H   4.14622470310913     -3.24447587920188      0.78233670950315
  H   7.03514424517304      1.61286345788740     -1.38725901905915
  H   4.80392064201826      2.91150650617069     -2.35890519180536
  H   6.42958888967018      3.58993986232226     -2.32862680950575
  H   4.29286361821712      4.59194297534039     -0.87074755292932
  H   5.98413551422741      4.65236591763183      1.17670443144406
  H   6.68857952909691      2.03807211784230      1.25775015966384
  H   7.55715451530905      3.20778382168387      0.25565410581964
  H   4.13070458377123      4.05102430859868      2.30167132855082
  H   4.58317871468496      2.39479182200820      2.00649075153270
  H   2.57454501829156      4.06825285372365      0.39908483951644
  H   2.28453328140144      2.65729353489203      1.41135875002244
