22
Coordinates from ORCA-job 13716optt
  Br  0.96635565420646     -0.51663315163145      1.48646652393659
  C   2.67155176812855     -0.53473513184351      0.73246627422815
  C   3.04291039501204     -1.47315086638743     -0.13560547687605
  N   4.33298137880997     -1.49125833513199     -0.66957951355328
  C   5.24518801647700     -0.59193108703162     -0.22045784950782
  N   4.97173513929004      0.35404962110485      0.59267610970740
  C   3.66700881451522      0.49723300200889      1.11661512922443
  N   3.34040411999235      1.43733486263645      1.89887815201482
  C   4.47519161711569     -2.76178584082548     -1.42041679722092
  C   3.02227367177671     -2.80247660687648     -1.95696135478523
  N   2.33682057154848     -2.65948448862742     -0.61727535657488
  C   3.06546004901061     -3.69523100990101      0.06181553311402
  C   4.29831245324879     -3.86181221720750     -0.39602111423553
  O   5.06088771714617     -4.39742703101123      0.61080032984633
  C   4.21785683104972     -4.58316212734014      1.68271332456343
  O   4.50416390105331     -5.08058146358172      2.70646643362644
  O   2.95618050743005     -4.12053056453317      1.33943405644177
  H   6.25155767821188     -0.70008454299859     -0.61588344857742
  H   4.15019189467687      2.03448532652944      2.06004641139131
  H   5.30547329780518     -2.76073767459637     -2.11643183043172
  H   2.73984801094635     -3.73805625199346     -2.42611282547646
  H   2.78564651254850     -1.94302442076105     -2.57763271085537
