23
Coordinates from ORCA-job 13726optt
  Br  5.00582221424914     -1.52712484157964      2.95115653419098
  C   5.06576799445437     -0.67275531685988      1.29357392973129
  C   5.96089644356837      0.27406530948542      1.00451292534235
  N   5.96065754376591      0.84520624360059     -0.30654117160165
  C   6.01372670194399     -0.21794832295443     -1.21253912838120
  N   4.99426070733073     -1.08535668784983     -1.06566870880149
  C   4.28218406000746     -1.22151156389993      0.17052608900922
  N   3.20985458074775     -1.86204829937152      0.30464181462795
  C   7.18829506814890     -0.47103008009514     -1.91859854314134
  C   7.81697218081663     -1.56711682421844     -1.27935941268990
  N   9.07391170272511     -1.56527182952348     -0.95631455870344
  C   9.43444129007281     -1.78427914016482      0.32525000114103
  O   10.33090063866717     -2.42184666470719      0.79234202956069
  N   8.54669863915408     -1.02981208356327      1.26506367249710
  C   8.21717471749952      0.26597586930733      1.09307737522128
  O   8.73649800546237      1.08144066966126      0.39793881789054
  O   7.00372831320110      0.62553329708523      1.78944295321846
  H   6.76478664987788      1.45932792435145     -0.40858395360814
  H   4.90491208232305     -1.82719821067167     -1.74455341599371
  H   2.85241515224579     -2.23042635253554     -0.57511208564835
  H   8.27614690390416     -1.48718114334819      2.12551193146349
  H   7.15236396669430     -2.32715555578484     -0.85164573353337
  H   7.83958444313929      0.37351360363654     -2.10512136179180
