25
Coordinates from ORCA-job 13720optt
  Br  2.79904485904682      2.43668327504432      0.31912848145279
  C   4.40582379386191      1.48388910721096      0.10065574195874
  C   5.58290890298696      2.02316730579859     -0.32781675061870
  N   6.61289139241604      1.14241785412132     -0.42128469725204
  C   6.53540503823624     -0.25587392445883     -0.31823079287079
  N   5.38822227762094     -0.73484340961597      0.27814022709737
  C   4.40902890625740      0.08644005301675      0.45506938245779
  N   7.48964072739231     -1.00990231300493     -0.75431249153443
  C   8.34683393658587     -0.22120026822223     -1.53120720700497
  C   9.48182520108162      0.39510015524842     -1.16052130052772
  C   9.51027032658078      1.86647642607394     -1.40780262740038
  C   8.46029009716683      2.57363907762974     -1.98710105030925
  C   8.07018344477942      3.57887823202620     -1.07096123978627
  C   9.03360533561986      3.64657007522156     -0.09132014333357
  N   9.91191232275886      2.61647793769809     -0.32872248957119
  N   6.78617829589814      4.16871955440402     -1.00570189575099
  C   5.76507032420665      3.47673993384673     -0.69151567426477
  H   7.50638666706303      1.53614340716080     -0.66422142348030
  H   3.50549643412544     -0.31401856804869      0.90724458053333
  H   7.84572752354770      0.18672265737993     -2.40845895280293
  H   10.01319232004323      0.05856389107086     -0.27686531135046
  H   7.85087058759084      2.23969931165292     -2.80957674911675
  H   9.13307923608250      4.30663306798203      0.75176991939697
  H   10.60856865647770      2.31379447149164      0.33020182491356
  H   4.82254339257282      4.01608268927181     -0.65158936083502
