21
Coordinates from ORCA-job 13732optt
  Br  3.26217716312577      0.62471361494827     -2.97301400809664
  C   4.45209680422547      0.46620054520309     -1.53116132992072
  C   5.43379327784198      1.37670760975398     -1.29012567878040
  N   6.22367531498556      1.14143633812187     -0.19862431025363
  C   6.34208299674621     -0.12241887978372      0.40070113352914
  N   5.22696697980762     -0.92051463331315      0.28516365557675
  C   4.34816947686043     -0.62667934035160     -0.61711844699670
  N   7.38415462824162     -0.52619227032211      1.03508113490960
  C   8.64225279818906      0.06663845383881      0.93092579024279
  N   9.42875212035883      0.17901912706771      1.91257773547479
  C   8.86566670840437      0.52390199528950     -0.48608445521281
  N   9.01521311664486      1.76368588532410     -0.75089506877935
  C   8.27842053867129      2.10644819786763     -1.89238176695603
  C   7.39517345564820      3.10667368038019     -1.75175938094376
  S   5.75841718370625      2.78692145588706     -2.32673881219702
  H   6.89230203451892      1.84754188289615      0.07043571129506
  H   3.48205074736858     -1.27840892492469     -0.69479460395410
  H   10.30781689456012      0.59717143385162      1.61189476464323
  H   8.52457472237063     -0.18864642370052     -1.24799100671400
  H   8.15045173721528      1.36193754428851     -2.67969143594969
  H   7.52679130050889      3.85086270767726     -0.97539962091651
