27
Coordinates from ORCA-job 13737optt
  Br  2.96553490682939      2.00449183333400     -3.15373597173223
  C   4.25554169804970      1.63341182232553     -1.83212298923281
  C   4.00137147414578      1.72459326765353     -0.46452472735473
  N   4.85967489881762      1.19885959567092      0.39754685670361
  C   5.97350422307171      0.66249926629031     -0.09073422873040
  N   6.41369558627987      0.80742718908725     -1.33065544776687
  C   5.56921027285148      1.35533024830120     -2.19271893823116
  N   6.05032713626727      1.81295905863404     -3.43419406529462
  C   5.95394777255845      3.16340816550320     -3.74457209234196
  O   5.89713059856446      3.53803467249978     -4.88890518935689
  C   6.05871944853232      4.15071574672897     -2.58228061015906
  C   4.75492834440160      4.81127563206756     -2.09156129131629
  O   4.40549616545644      4.29005953578043     -0.81731624397699
  C   3.05009300122106      4.04210236903205     -0.53305122449527
  C   2.91857720318380      2.62154788711358      0.09961626019967
  C   1.56250470810126      2.10173872275736     -0.04858446506082
  C   0.44207912972202      1.69735473078413     -0.16667164321459
  H   6.61331839704982      0.13293806190209      0.60484568515242
  H   6.06348319418397      1.18835230916111     -4.22945667292084
  H   6.71686184618941      4.92631506630859     -2.97213181918753
  H   6.55040041426353      3.69585493074435     -1.72177784445508
  H   3.94713331468707      4.66046563244063     -2.81146773502291
  H   4.91671904788037      5.88630741858285     -1.99223217399179
  H   2.43837097981876      4.10492265269920     -1.43276141937434
  H   2.67013986509978      4.77043466850085      0.18701084034787
  H   3.14897792112969      2.68956916981459      1.16425841280842
  H   -0.54974154835671      1.32703034628184     -0.27282126199475
