22
Coordinates from ORCA-job 13735optt
  Br  9.73800080326612      2.56501492435995     -4.13483901398929
  C   8.90020595041571      2.28736836136143     -2.48831887380433
  C   9.31136319234050      2.88850923746576     -1.35320573067978
  N   8.65413535286706      2.58581666430060     -0.19403553346259
  C   8.07887122798687      1.31251141459434     -0.09640304794571
  N   7.35444081722435      0.94448175826048     -1.21256332492632
  C   7.76800453541474      1.40117080772995     -2.34352455552212
  N   8.25841665298573      0.54369896720455      0.90401840660437
  C   9.39086231924665      0.74935783694740      1.70816804968157
  N   9.46128261041178      0.77082937373661      2.96448157644686
  N   10.55832826904388      0.85331229120056      0.88321382792491
  C   11.11354395083799      1.98275513598232      0.85537494430794
  C   12.03768821587506      2.38288741267466     -0.23524849427334
  C   11.62193605872999      3.23078145302963     -1.17436887952328
  O   10.33717726977416      3.77541874676882     -1.22934806861895
  C   12.48973891590660      3.72287224756885     -2.20795574252343
  N   13.20665313454739      4.12337077853659     -3.00766085722698
  H   8.95196468074041      3.05112689465665      0.64995926426847
  H   7.24364674853676      1.08481481989724     -3.24051043411607
  H   8.53447797227825      0.64142702508664      3.36763971394659
  H   10.84398495897914      2.78085173614868      1.56066682082346
  H   13.04727636259080      1.99662211248823     -0.29154004739201
