25
Coordinates from ORCA-job 13749optt
  Br  3.81836864134772     -0.83222823661679      2.89059600536797
  C   4.52911881981318     -0.83717068237738      1.15909415385351
  C   5.73193623199291     -0.28907397870818      0.89148669605592
  N   6.19703443902835     -0.29559309148126     -0.40892548811717
  C   5.85736934551479     -1.32494587800406     -1.25148816304673
  N   4.59276548475496     -1.78985336994030     -1.03712073473470
  C   3.79250662420980     -1.51585639987981      0.09194014056102
  N   2.59682457321047     -1.90657680683239      0.23058260143388
  N   6.57742133132366     -1.87229873872546     -2.16906464465318
  C   7.95448468969815     -1.70279918920515     -2.27925971800099
  O   8.58094565522041     -2.19861154416219     -3.17278677585105
  C   8.68552809235193     -0.87596635917990     -1.21281213621806
  N   9.13020241935022      0.25395702298419     -1.58434184374497
  N   8.66197114395107     -1.36963971508264      0.07583283084309
  C   8.86969694828839     -0.49529559539884      1.17485196887823
  C   7.95866028238805      0.19782629619122      1.87293133042825
  N   6.56879504487004      0.30298142615909      1.80921964220280
  H   7.00542054060378      0.26749551760668     -0.63539022812915
  H   4.31167869794536     -2.53788103726413     -1.65589391602125
  H   2.24986868662485     -2.40112121014397     -0.58825736254586
  H   9.56062705607593      0.76964886300329     -0.81598080105879
  H   8.16225833802983     -2.23111316241369      0.23431057843410
  H   9.90108707072870     -0.32366608671449      1.45918017204603
  H   8.35326216940544      0.80703909388753      2.67617124078278
  H   6.11616767327188      0.56074286229866      2.67412445123431
