23
Coordinates from ORCA-job 13742optt
  Br  5.28983045838354      1.61227574551014     -3.25519636037130
  C   5.75031050645650      0.97900444406407     -1.54796695337394
  C   6.45219512158221      1.71058288447399     -0.65442499596917
  N   6.72249166429386      1.12501000371903      0.54816728067541
  C   6.70875852702136     -0.27023285759323      0.64929388294724
  N   5.66430358762411     -0.87574883327166     -0.01635842318966
  C   5.23860459484250     -0.28576074421451     -1.07922254959960
  N   7.62638995069163     -0.91177643711211      1.25311763834626
  C   8.87732209578565     -0.29415286010416      1.37709654277513
  O   9.49020366383897     -0.12886795678089      2.39027541049661
  N   9.37582173851233      0.01102227355408      0.07494068799847
  C   9.34198223732261      1.21473559062094     -0.29010207332094
  N   9.60829802460128      1.61249749732944     -1.58501304470157
  C   9.08942827516895      2.74784676435927     -2.15914479034993
  C   8.00531562363524      3.45468771082125     -1.78793682865876
  C   6.93968988203219      3.14123262400371     -0.81843726417642
  O   6.38437640460701      3.99305469141173     -0.16935477980209
  H   7.17608401448815      1.65948097913201      1.27589129121582
  H   4.44412169432297     -0.76708240973485     -1.64252430988701
  H   9.09976058123382      2.06184945728944      0.35674794638846
  H   10.12442630461535      0.96352548210927     -2.16203325869845
  H   9.67793189010981      3.11793057331033     -2.99094607570027
  H   7.87835315882985      4.42788537710270     -2.24486897304429
