24
Coordinates from ORCA-job 13746optt
  Br  3.05828747151818      0.68031293635105      1.74988959887612
  C   4.32369535361640     -0.34137409734416      0.82236910272473
  C   5.66154311192415     -0.25322614055870      1.01214540548517
  N   6.53549417153626     -1.05587278975941      0.33286264259218
  C   6.11411344637158     -1.81914219365763     -0.60857080773449
  N   4.79306862147906     -1.95603380311392     -0.88057384484618
  C   3.78324633238017     -1.29437691159958     -0.16238153691361
  N   2.53958465529132     -1.46231708119812     -0.34351517310891
  N   6.96380376100258     -2.61749472253539     -1.39892088959553
  C   8.17931115576710     -2.25762546050668     -1.57520921773309
  C   8.68741053090286     -0.96202503821610     -1.08552779241931
  C   9.29025509609323     -0.86388346024729      0.08743586257397
  O   9.12348270558424      0.28184977927778      0.82907533280728
  C   8.65116896807024     -0.00874739735107      2.09929047208277
  N   7.51151709226508      0.22842817145881      2.53858480245333
  C   6.41634409536546      0.76572181407984      1.83909449727905
  N   6.14612025757012      1.99151350426054      1.93597990982952
  H   4.52883708658069     -2.60753457140339     -1.60655469145066
  H   2.33655251341519     -2.15173459049181     -1.06337724815045
  H   8.81777847254858     -2.96293961069117     -2.10377688994709
  H   8.13760328913441     -0.08685467347341     -1.41339247954565
  H   9.75896179647792     -1.69626391582123      0.60513075991706
  H   9.39909475883321     -0.47810446646753      2.73697035153358
  H   5.29172525627186      2.21972471900858      1.43297183329019
