19
Coordinates from ORCA-job 13745optt
  Br  1.24584793995178      0.08809125475839     -0.88439458428448
  C   3.02523078211537      0.05893037544617     -0.34785573531392
  C   3.64399865264043     -1.01060740052391      0.17290781888497
  N   4.99924993354942     -0.91919040544309      0.51534929028258
  C   5.54580187973055      0.35728499793463      0.66712957080294
  N   4.99298183688168      1.41330521076906      0.24600894648959
  C   3.79487634782633      1.32395017510002     -0.49555856476134
  N   3.36820475087532      2.26400534405700     -1.21995124408925
  C   5.89844697465106     -1.99067765590298      0.50710167723659
  O   6.94870683047115     -1.96015110956197      1.06179912116879
  S   5.69716397454265     -3.35212352228684     -0.68890590256329
  C   4.04563025365368     -3.79245476593069     -1.03547405518450
  N   2.91321998779140     -3.51762031108007     -0.53748153029759
  S   2.86330127114617     -2.51519783798939      0.78111016270264
  O   1.50313082009080     -2.26895620160196      1.08515764204647
  O   3.76579550264083     -3.01438699746551      1.77528879146144
  H   6.51150351414519      0.37184248244294      1.15865096904558
  H   4.01104017262908      3.05439193765940     -1.16449019952918
  H   4.06586857466704     -4.50243557038117     -1.86339217409804
