27
Coordinates from ORCA-job 13753optt
  Br  4.49515353959211     -1.21565199387452      2.88303223253338
  C   5.08421618121727     -0.64664747840797      1.19821206202929
  C   6.06982443073323      0.25098016076430      1.03517383221120
  N   6.46558740840940      0.66535432631963     -0.22806580216189
  C   6.38394485307194     -0.28218266912311     -1.26253400502448
  N   5.28909566874143     -1.12321649308564     -1.13497897141785
  C   4.56450506232655     -1.37217764185652      0.02322953283292
  O   3.66457695606279     -2.17123407625703      0.03340490768225
  C   7.35997856364938     -0.44639880449462     -2.16087070797575
  C   7.75293807245580     -1.79756245294167     -2.63510385220276
  C   8.56314518916276     -2.54072661520840     -1.86463741290239
  C   9.10419559092648     -2.07990477361743     -0.56791972079010
  C   8.35263358373589     -1.61311017293448      0.43611950863026
  C   8.87380056028569     -0.86355648225566      1.57568728324452
  C   8.27838763793885      0.11160619643444      2.28778744220790
  C   6.93851954040843      0.72910886541225      2.15539284623530
  N   6.60277457097136      1.63126260800334      2.98178058864712
  H   7.34443727076504      1.16449505736145     -0.23338703153525
  H   5.06994786560172     -1.73245267067100     -1.90949663721123
  H   8.13667888287895      0.31050587882778     -2.17292248357205
  H   7.46842511364076     -2.17456123157298     -3.61260113357263
  H   8.93555400894267     -3.48293894105064     -2.25564897313152
  H   10.18881144743521     -2.04280463314815     -0.48280335420104
  H   7.28423377203870     -1.74801283389491      0.36876189700536
  H   9.90449052675933     -1.08212136575911      1.84196257118838
  H   8.84061134728206      0.57240948672764      3.09174130150093
  H   5.65853235496569      1.97053875030308      2.79468407975013
