26
Coordinates from ORCA-job 13756optt
  Br  1.14746069504992      0.24494000524337      0.23559763206352
  C   2.99523593205434      0.05188783640175      0.07607026876724
  C   3.61194742529383     -1.14339462898793     -0.04305579124442
  N   5.00162952868230     -1.17273186426366     -0.08268079456555
  C   5.68871922736343     -0.00208863114801     -0.05449137565094
  N   5.17670814902904      1.16386315999663      0.04258837597826
  C   3.78430765929491      1.31047566859200      0.11873974352835
  O   3.27082822903374      2.39444006499105      0.21345021230080
  C   5.69376012538151     -2.45244337087568     -0.26000698882869
  C   5.07220956756518     -3.46299003600032      0.70833512757943
  N   3.64331229595602     -3.54315718787985      0.48879083221240
  C   3.02780744597553     -4.74949235820487     -0.06972095352625
  C   1.67654428195065     -4.18495238668036     -0.53963106162136
  N   1.89715596224458     -2.74537203312615     -0.72463783897268
  C   2.97906855692623     -2.47906770038120     -0.12004760909107
  C   5.60279947050399     -2.91522436138200     -1.64943677368733
  C   5.49482240636854     -3.29411222838842     -2.77874582349181
  H   6.76897133721524     -0.11042239930693     -0.11841114430094
  H   6.73953816690460     -2.28686584110828      0.00313233752702
  H   5.29517932065826     -3.14758298369353      1.73048328839911
  H   5.51731732979033     -4.44460758242656      0.54676750664736
  H   2.93057247343236     -5.53117740978373      0.68162213871558
  H   3.62770149384554     -5.12292674099151     -0.90799220845476
  H   0.90578981242651     -4.31833743758875      0.22438655423067
  H   1.31779018626914     -4.63646979566568     -1.46212065013312
  H   5.40482292078422     -3.62118975734130     -3.78798500438082
