25
Coordinates from ORCA-job 13751optt
  Br  1.30512584967465     -0.75993236152695      0.46384677446002
  C   3.05334394459740     -0.39030717989646     -0.06144590394770
  C   3.56910861407313      0.85426523302916     -0.22651263726629
  N   4.90294708339022      0.96416187469293     -0.62362287421867
  C   5.62375825013483     -0.17170475423604     -0.80626193486582
  N   5.21184191902260     -1.37330348987318     -0.66878220322470
  C   3.88999603555241     -1.60688196775295     -0.28148097598385
  O   3.45946464444588     -2.72014787591826     -0.13823916588690
  C   5.60464131388655      2.24903871465952     -0.75365259682251
  C   6.25375861804334      2.64226730089665      0.56662468567957
  O   5.29277976767355      2.88565382854777      1.58495723472739
  C   4.23770034608454      3.70040101684587      1.26689713402481
  N   3.77107224518199      4.54531929083830      2.06535844232546
  C   3.59294417452943      3.44603545603908     -0.07767840861564
  C   4.63679364237480      3.33414810592846     -1.18500846597338
  C   2.80038826388154      2.13962684863611     -0.01984408718093
  O   1.61680961464527      2.15585315795257      0.15247850580387
  H   6.65515156110813     -0.00130406476059     -1.10773560844508
  H   6.38887155156171      2.11017415848243     -1.49846267125023
  H   6.86415373388833      3.53848151209394      0.41398372248241
  H   6.89026839759326      1.84263403132832      0.94248421505368
  H   4.31395440037155      4.56794111190480      2.92918244274568
  H   2.86940111055930      4.23802516334651     -0.24804438122017
  H   5.17338756747254      4.27533157641801     -1.30926192333186
  H   4.16633735025300      3.08322331232396     -2.13677931906916
