23
Coordinates from ORCA-job 13754optt
  Br  2.82231141004669     -0.50356265821466     -2.24168955534387
  C   3.86679198604812     -0.14248349086179     -0.73648179676701
  C   4.40636436512698      1.06451445725075     -0.49771456553127
  N   5.18903194973786      1.21542020196773      0.65748468674633
  C   5.31076368334644      0.19063450103641      1.54361880781025
  N   4.80658437802525     -0.97079104007345      1.38603535756314
  C   4.09249266238314     -1.27263501336180      0.21059311654778
  O   3.68114138111174     -2.38054969177024     -0.00302298771690
  C   5.89531815771738      2.45304761152476      0.59760397585778
  C   5.30095753933246      3.59254581368832      1.38228130457194
  C   5.85519607257871      4.87801095112268      0.96846099881655
  N   6.30064421715425      5.86669112346933      0.60057761295018
  C   6.62030913890170      2.53723852711292     -0.52222369757740
  C   6.17021166003739      3.44054830887972     -1.60631675514681
  N   4.97695128911179      3.21720776508127     -1.98676145979752
  C   4.07242753556683      2.35070826083995     -1.27410413889203
  N   2.85132728194451      2.66227644567627     -1.23188887719101
  H   5.90508296789283      0.42168030897828      2.42475464909244
  H   5.49538586953864      3.44754242544653      2.44897585127876
  H   4.21364245286760      3.60999651328429      1.25604946749563
  H   6.99819441347899      1.59533199214333     -0.91414117928033
  H   6.78602289931431      4.13936332869849     -2.16215252134049
  H   2.69384668873633      3.51126335808090     -1.77993829414613
