28
Coordinates from ORCA-job 13762optt
  Br  3.13567615882363      0.60565994787795      0.64221031971747
  C   4.31764885677777     -0.82107718823213      1.06562095211043
  C   5.58943353461189     -0.55678160036529      1.50088147542549
  N   6.15632380617612      0.39685748117474      0.64193975252928
  C   6.10070801534716     -0.15147704242664     -0.65913057714053
  N   5.31033778200719     -1.07259956621737     -1.05300556641465
  C   4.43347664174064     -1.77618282080078     -0.11525173940412
  O   4.01478526657783     -2.85789983872206     -0.32946825923853
  C   7.31642357858663      0.27320362976251     -1.44670299256574
  N   7.72486163618363      1.46926173173399     -1.55314787453293
  N   8.06397335686571     -0.81449908621485     -1.81750859634867
  C   9.48574809706268     -0.86971848243818     -1.50127173102166
  C   9.76817963654822     -1.65998188095434     -0.21417893070135
  C   8.89549607060604     -1.24438833459127      0.98834485288541
  C   7.66173641634275     -2.15450728702854      1.14440348584641
  C   6.42307355145805     -1.73492911394941      1.93990812697724
  O   5.99722726901646     -2.42627631733828      2.82801551477943
  H   7.00191769384499      0.89946068508424      0.87112660561376
  H   7.05211111996685      2.13213795936279     -1.17689883458781
  H   7.56178063911730     -1.68907268085564     -1.79320336329322
  H   9.81661510513731      0.16306709388285     -1.39849853130917
  H   10.03500384049443     -1.30715010150329     -2.33570051009190
  H   10.82482526804672     -1.52372530924873      0.02348363067413
  H   9.63306363213739     -2.72955745260423     -0.40096097693806
  H   9.47942132471587     -1.30745806738736      1.90676226143320
  H   8.63731095368994     -0.19167437715135      0.87333235842311
  H   7.97771082302475     -3.09215576641264      1.60204643048675
  H   7.27312992509191     -2.41953621443666      0.15685271668620
