19
Coordinates from ORCA-job 13764optt
  Br  1.17873455119136      0.29759012037804      0.32286753527159
  C   3.00306092699901      0.02191974770034      0.13535445470081
  C   3.58253554919617     -1.18712186086924      0.05219956253672
  N   4.98329716344756     -1.23602192469623     -0.00098408157910
  C   5.74580760300641     -0.09575651488437      0.00982553342904
  N   5.26364449497655      1.07895131056836      0.05172501916532
  C   3.86312125811898      1.25478282524912      0.10572399255645
  O   3.38294972083465      2.35135044802998      0.13196980367629
  C   5.47984915415189     -2.54890300711483      0.00658179326681
  O   6.62346842384074     -2.88549206685543     -0.01722461787494
  C   4.23450701381549     -3.36105412390353      0.04807002824983
  C   3.13217775709189     -2.58821030568948      0.04803921384851
  C   1.82660374140369     -3.27128255718648     -0.08129506863829
  O   0.78781628050606     -2.76319006122492     -0.37672289426008
  N   1.91899083932579     -4.67753354460618      0.12483312263276
  C   3.02946717897607     -5.26799425122106      0.16518977981950
  O   4.26182672526588     -4.68999506519892      0.07027475251205
  H   6.81693709706649     -0.27282561453482     -0.02138940843633
  H   3.12520452078528     -6.34021355394033      0.28596147912306
