21
Coordinates from ORCA-job 13774optt
  Br  5.49323634040556      1.90374870753694      2.17904077759340
  C   5.82163331717396      0.68589990624329      0.80435220536996
  C   7.01996465244624      0.52978792372637      0.21898186795485
  N   7.25824642670329     -0.41735068614760     -0.75760352734316
  C   6.47183061100461     -1.42888651408454     -0.81078907200573
  N   5.24416130769507     -1.40419810632742     -0.23984656599711
  C   4.76738889088107     -0.30056953917305      0.50283259490273
  O   3.64041989830711     -0.29100146784657      0.92025107930889
  N   6.93600130436580     -2.56644150734459     -1.48177526198016
  C   8.03743088441249     -3.04721604433615     -1.07481212334324
  O   8.55454541174476     -2.83345329336282      0.15257760223000
  C   9.89543459508807     -2.38313216855793      0.43326995175462
  C   9.73538037026017     -0.91092186757360      0.74444904102533
  N   8.69782688326731     -0.50451698129381      1.36999277016933
  C   8.43822884247341      0.69217501262372      0.71910474666290
  N   9.40123521901954      1.09470085121096     -0.05552588128098
  O   10.29645720679193      0.02930885122358     -0.03108034867603
  H   4.62508181520872     -2.20144198396000     -0.29882582994488
  H   8.56891694583595     -3.77374058390877     -1.68840828112006
  H   10.56205287245231     -2.52790063728562     -0.41677081418345
  H   10.23652620446254     -2.95784987136237      1.28958506890278
