21
Coordinates from ORCA-job 13777optt
  Br  1.02442960576286     -1.15433298044307     -0.23008036101125
  C   2.74614710340398     -0.54564186011028      0.16281378278698
  C   3.08848954188110      0.77179727180393      0.00978196133887
  N   2.28772415538164      1.83320024904744     -0.36524003791281
  C   3.12233259694477      2.82205890235120     -0.46912905237760
  N   4.47213085679051      2.55658599796158     -0.20448548690234
  C   4.46754849802489      1.29679466292152      0.10405282421145
  C   5.52616741077543      0.34712779286921      0.41669477112586
  C   6.81851423294991      0.09240175576545     -0.02489969869601
  C   7.04618067384910     -1.34635742884021      0.10740434525048
  C   7.45184378045672     -2.48334721742153     -0.54041200519306
  O   6.53501129094913     -3.50210087720928     -0.37508083477700
  C   5.46791502050063     -2.95683803312221      0.28910795321715
  C   4.08339490416558     -2.85220742746677      0.17712200423799
  C   3.77787232292580     -1.48336163465773      0.54653957306667
  C   4.97290618448566     -0.87550721175405      0.89764786678742
  N   5.93747462059567     -1.80649961675518      0.81091075743821
  H   2.81509036129231      3.81942139955344     -0.74973952139080
  H   7.47635172741586      0.78879009278280     -0.51856473042971
  H   8.28520296027382     -2.71701034985367     -1.17878728399540
  H   3.39227215117458     -3.58897348742261     -0.19465682677510
