23
Coordinates from ORCA-job 13773optt
  Br  4.46834479220802      0.11497428277056      3.10041834625180
  C   5.21984899666030     -0.47208234203325      1.49644129230255
  C   6.55979602508748     -0.69861970035389      1.33151191925102
  N   7.07160141824488     -1.14332633196129      0.14752381377940
  C   6.29831507263675     -1.19628866457559     -0.89573874928208
  N   4.96635576751901     -1.00086354277396     -0.81733667584801
  C   4.30574347073211     -0.65324752122598      0.38253115177256
  O   3.10819768510559     -0.51666077195873      0.37550396650253
  N   6.89988315519398     -1.41662316841176     -2.08646504997103
  C   8.35341750022097     -1.43484882784932     -2.06397020463384
  C   8.87368115455109     -0.44348030026725     -1.00689297769389
  O   8.78840901376672      0.74701453623443     -1.12726822123632
  C   9.80470978092956     -1.05645027718003      0.03097465883296
  O   10.76763155915921     -1.65881025820987     -0.37181757353739
  N   9.67863966894580     -0.80996506707593      1.39528455896519
  C   8.69719690758177     -0.53431410055134      2.34075927195985
  N   7.42963857808494     -0.47094429326571      2.37561231915280
  H   4.36640324870308     -1.07935656099960     -1.62712271945342
  H   6.41721465232764     -1.18462415788753     -2.93715497403877
  H   8.72759201571431     -1.12634947684485     -3.03814812207289
  H   8.72188214477400     -2.43490402811727     -1.83635977318026
  H   10.56928575306372     -1.00864782488475      1.83530465186906
  H   9.18721163878901     -0.36258160257707      3.29740909030817
