22
Coordinates from ORCA-job 13771optt
  Br  1.32134553442646      0.82440377378502     -0.03439966388855
  C   3.11528961401815      0.28224434361054     -0.01547149278823
  C   3.54368019393110     -1.00285457598747      0.03674303927968
  N   4.94471172937957     -1.19712855405115      0.06807237434041
  C   5.79346546903365     -0.09727492023673      0.04924857849183
  N   5.42795455778390      1.11355773412149     -0.01073478188371
  C   4.05952220923140      1.42642548537884     -0.06573776005847
  O   3.69086905212343      2.56569805564765     -0.14899361792222
  C   5.59280905395801     -2.44588844022584      0.12746172365229
  O   6.77318846440825     -2.57281871896991      0.14728598380451
  O   4.79052578303572     -3.52390191972218      0.16333251051206
  C   3.44292250034897     -3.40140501435398      0.13441229165189
  C   2.77645388460714     -2.24900403243764      0.06281627640055
  C   1.27686545198972     -2.36832214621252      0.02278635533042
  O   0.68336512485150     -2.03849053726769      1.28385142072139
  C   0.69524761867603     -3.00495877688914      2.20445329337963
  O   1.14032338846044     -4.10466415014093      2.05206805133587
  H   6.84217405171457     -0.36200232389237      0.09097478646587
  H   2.95878301339208     -4.36479827386546      0.19788165864239
  H   1.01697541946630     -3.39468732296965     -0.23060109203329
  H   0.83106779224841     -1.69638383023900     -0.69962422237015
  H   0.23146009291517     -2.63974585508187      3.12717428693583
