20
Coordinates from ORCA-job 13782optt
  Br  2.26512600797087     -1.11095685831894     -1.67441029782799
  C   3.82708649130381     -0.68979566714071     -0.77170752492060
  C   4.15241689050859      0.60246018216914     -0.41661524323261
  N   3.42370899974427      1.73635424416312     -0.66182210755066
  C   4.15804466546536      2.68094214123763     -0.13121512905453
  N   5.34758482711439      2.30873301337046      0.46888420787305
  C   5.36333433399303      1.01510254078892      0.30267655051199
  C   6.26678887095080     -0.04618763456458      0.65214166188607
  N   7.44473699281681     -0.22272984063091      1.27483332896273
  N   7.69867633933425     -1.53060653756530      1.22380271618393
  C   6.72893745972280     -2.24347008320463      0.58919221365610
  C   5.82426659720506     -1.29027426473966      0.23288950577223
  N   4.70166833938423     -1.68299548145364     -0.43465087972053
  C   4.82084278160828     -3.10411569667280     -0.56907561034125
  N   4.00040870288017     -3.86893422019250     -1.10831802809812
  C   6.19241423061668     -3.51529480095030      0.10474824439063
  O   6.56841297204045     -4.64756633467043      0.13091141297259
  H   3.86205514154764      3.72003217013503     -0.15215897923982
  H   8.55026534872131     -1.86923672607363      1.64286041241413
  H   4.35322400707118     -4.82846014568626     -1.05596645463734
