22
Coordinates from ORCA-job 13780optt
  Br  0.73906682851902     -0.61001523669850      0.67426029581905
  C   2.58804553570363     -0.44986505812947      0.44672578077936
  C   3.19392498086432      0.79030400724334      0.27778198076790
  N   2.60085163028803      2.03858554331271      0.24934403741127
  C   3.56981086632967      2.88343667794927      0.06324604895717
  N   4.79880796028008      2.30941321112720     -0.04033726451968
  C   4.59023167710211      0.94611581326594      0.09592667697766
  C   5.39513577970176     -0.16579403117385      0.08261983849168
  N   6.73676490275057     -0.39532064694229     -0.07511574240553
  C   6.95105487161511     -1.77536099384214     -0.00680401847589
  C   5.72562037245276     -2.34404757847781      0.19820288956119
  N   5.87396645561210     -3.66892277089048      0.26649827742533
  N   7.16747416066558     -3.99500745732730      0.11248749338630
  C   7.84344154835572     -2.86326585135766     -0.05525402882896
  N   4.75685051557535     -1.37111182653636      0.25713806977172
  C   3.36579574379499     -1.63450525840542      0.44832590861163
  O   3.05434006544778     -2.81095694470705      0.57844000926279
  H   3.44871938162612      3.95393703350515     -0.00859326264070
  H   5.66686073235638      2.79315410894408     -0.18292255040691
  H   7.42325455679633      0.31903830885681     -0.23046361381199
  H   5.15233938962874     -4.35767066364968      0.40924456333241
  H   8.90964204453383     -2.89314038606649     -0.19875138946580
