26
Coordinates from ORCA-job 13788optt
  Br  0.92100719432019      0.39258330916463     -0.37579149959360
  C   2.77926059304199      0.36477385875225     -0.27234797896924
  C   3.54328102691775      1.45296132691232     -0.03890304985374
  N   3.23445794592292      2.79078034470478      0.17825220666246
  C   4.38042912710526      3.35894473438137      0.31767078428572
  N   5.45918069866609      2.49716501865661      0.21817886527251
  C   4.95837767253302      1.24777781342038     -0.01670658552073
  C   5.58822425478667      0.04562303656229     -0.19533949224377
  C   7.10128894644686     -0.02457761290489     -0.07476773600480
  C   7.77593818946148     -1.28628180813227     -0.60182502832396
  C   7.71996848746980     -1.29107010977809     -2.11949403989164
  O   8.29231843654789     -0.08750447156606     -2.61863115616932
  C   7.61924674825402      1.02301374327336     -2.13213844040930
  O   7.68171773173668      1.11705880555454     -0.72553506792275
  C   4.74148844438175     -1.08856460367813     -0.43066820940117
  O   5.02609012171064     -2.23759316469009     -0.61393515043724
  O   3.33297652398272     -0.81519888882183     -0.45537981970647
  H   4.52914658957856      4.41285992531248      0.49930427981684
  H   6.44241818970179      2.72137291300053      0.18711887850155
  H   7.36259540390401      0.11276871690247      0.97787050867056
  H   7.30943410668210     -2.17840443666392     -0.19307788832489
  H   8.82120795040864     -1.24762981895420     -0.29114947253185
  H   6.68431926511164     -1.38323834733429     -2.46854226100511
  H   8.30011405468963     -2.10897042983582     -2.54077395802209
  H   6.56465755343155      0.99126727766469     -2.44649430383003
  H   8.10985474320626      1.91008286809690     -2.52489438504791
