21
Coordinates from ORCA-job 13784optt
  Br  1.15205483770889     -0.10601993887583      0.09075326201335
  C   3.02843366764066     -0.03364635526753     -0.00209620903697
  C   3.73136731413093      1.16695111457873     -0.01057380676958
  N   3.32353107532472      2.47142689969564      0.04325291951783
  C   4.45211615779281      3.23894879710363     -0.07078694161846
  N   5.53792557627032      2.53959912901765     -0.19438485143332
  C   5.12811591690995      1.22521303897281     -0.15638314411765
  C   5.89523236752415      0.05356142557538     -0.27500577521281
  Br  7.70451102168886      0.20446200573069     -0.71575917709083
  C   5.20864958927852     -1.13763642304309     -0.16772098330170
  C   3.79418794069422     -1.16620607127051     -0.08974905643041
  N   3.39799896553373     -2.48721525643792     -0.17445340498999
  C   4.47592956640341     -3.32891947161242     -0.29660652621154
  O   4.47390038625537     -4.52556973153564     -0.38641117303084
  N   5.61863942897230     -2.48491038398206     -0.25064622714725
  C   6.80979981449439     -3.06249989870900      0.21874232285556
  O   7.68637953635811     -2.45820200022801      0.75622108524281
  H   2.37460806720781      2.79346379385896      0.13792279438581
  H   4.40285798379251      4.31662462524459     -0.05331579200039
  H   2.44743274884465     -2.81892094446485     -0.18655013359516
  H   6.80032803717364     -4.14550435435122      0.04955081797153
