24
Coordinates from ORCA-job 13799optt
  Br  1.11018801805411     -0.33200760989997      0.30803557412585
  C   2.95031590654988     -0.16534485106428      0.16591687629173
  C   3.79191680307917     -1.12892246968239     -0.28523676838177
  N   3.59203781555372     -2.40003289711597     -0.74507201523177
  C   4.81729566210667     -2.78995431189285     -1.01735046178245
  N   5.84356997686656     -1.89963293241847     -0.78268294323529
  C   5.20269015634024     -0.84540893717987     -0.31779514237800
  C   5.68292848865570      0.41909895160011      0.11156665292442
  C   7.15731836679615      0.71618222303663      0.11181352484079
  N   7.75796254461410      0.41627456902140     -1.16806231415972
  C   8.09223110425289      1.40085327467304     -2.02412651417411
  O   8.04763498103538      2.58360591306268     -1.80532100309645
  O   8.51832738490475      0.85104213078967     -3.20466172406982
  C   8.99485522820919      1.70325530124769     -4.17434118408469
  N   9.41604770248097      1.29361014587653     -5.27631189864985
  C   4.74558984887054      1.29842374385391      0.51948657095364
  O   3.42181739734604      1.01444357550274      0.55184883624860
  H   5.02610194934765     -3.77359268366016     -1.41410521517490
  H   7.63779308499659      0.10562599560098      0.87876696692646
  H   7.34776234120225      1.76477428273973      0.33244959356013
  H   7.71296761835410     -0.53605391427089     -1.50442579150537
  H   8.97166162497996      2.74911006308900     -3.89059797928545
  H   9.35499218866256      0.27738522004336     -5.34629963575439
  H   4.93499380674077      2.30526521704740      0.85950599509240
