24
Coordinates from ORCA-job 13806optt
  Br  1.27761167835863     -0.05766388725009     -1.09436101034331
  C   3.05036969206034      0.00312727137912     -0.50681444701761
  C   3.70459768181775      1.16097939986603     -0.23941839182282
  N   3.29731322047175      2.48524355129088     -0.31355589083638
  C   4.33941011414707      3.15507809420754      0.05099337142879
  N   5.43289987949477      2.38285397146689      0.36542826393554
  C   5.06758235912391      1.07107084000606      0.19754560596299
  C   5.74127778603183     -0.10229467694150      0.36998790258845
  C   5.05205126848677     -1.32919192951562      0.09183988653279
  O   5.48633340127813     -2.46272108193563      0.18746920473506
  N   3.70772110776877     -1.16360415181135     -0.34468823099848
  C   4.37271315922836      4.65967564877317      0.10033832795673
  N   4.54094463279678      5.18098960843683      1.45562312593597
  C   5.68663183405793      5.07383937995834      2.16504954091492
  O   6.66582282512401      4.45766002831645      1.80800091615532
  C   5.36973950675182      5.20400661031959     -0.83040254637358
  C   6.15623760974165      5.64351530103611     -1.61636873237753
  H   6.29792116442152      2.76509419531004      0.72703612329959
  H   6.76674519665917     -0.16383844879333      0.70008471898178
  H   3.23443942878747     -2.03556838682687     -0.54088503299207
  H   3.38275434580819      4.96905214041080     -0.23448913067900
  H   3.78733301015669      5.72251498241623      1.84442190962003
  H   5.64408937514995      5.60944237522161      3.12456814503753
  H   6.86245972227671      6.03173916465865     -2.31140362964472
