26
Coordinates from ORCA-job 13803optt
  Br  1.09287177604369     -0.18267403523396     -0.57283176183046
  C   2.90175169874413     -0.07878909863354     -0.18147462058185
  C   3.43252846338512     -0.02198332896556      1.06551204372521
  N   2.87231006223483     -0.02925855021179      2.31126206204947
  C   3.92876090123120      0.04141723659999      3.08875483573650
  N   5.16728960028287      0.09766821122686      2.48698000307921
  C   4.86425015631407      0.05923986903580      1.20332784084050
  C   5.68504607850455      0.08418835022659      0.04289038966112
  C   5.03453912034419      0.01880966811861     -1.13813011472930
  O   3.68988980352500     -0.06108976512780     -1.24855485451840
  C   7.17706125533348      0.14173055722485      0.12398015735129
  N   7.65972178306863      1.19361602473339      1.00077232545003
  C   9.06129591013464      0.85166189743368      1.23898825350254
  C   9.16838040182882     -0.69626423272997      1.25160204457727
  C   7.80333114206159     -1.16774496222822      0.69899095022737
  C   7.88627595274579     -2.21554335514259     -0.30972427717799
  N   7.93825278408347     -3.00267694173396     -1.14228868701479
  H   3.84413435326342      0.05552837322107      4.16642030115822
  H   5.50505299733449      0.01819774407826     -2.10954264606284
  H   7.59282673856294      0.30224105302307     -0.87614284132846
  H   7.13703865388500      1.15055629721269      1.87243398516726
  H   9.40810415740709      1.30720430643472      2.16381762881084
  H   9.66165553432325      1.25636364038794      0.42220988858552
  H   9.32068241141810     -1.08646556864194      2.25568650062440
  H   9.98898625462332     -1.04703718865345      0.62828315575573
  H   7.16396200931628     -1.51689620165472      1.51177743694158
