24
Coordinates from ORCA-job 13807optt
  Br  1.12316182554545      0.08658090204222     -0.49154123514628
  C   2.93743479561347      0.35590879684820     -0.12202980866175
  C   3.51232381993969      1.58242344274893     -0.08137163768247
  N   2.99663425689294      2.85496157511327     -0.27550553567176
  C   4.01396074403447      3.64378816901156     -0.11325645136123
  N   5.19215026501068      2.98072207792140      0.16722944970984
  C   4.91913190088101      1.63755079257792      0.20742559299114
  C   5.69778500427047      0.54756166169993      0.44790142561560
  C   5.08559389347851     -0.75093120439154      0.41097481110100
  O   5.62899116111684     -1.82412718305215      0.60365788072879
  N   3.70107252499051     -0.73821460143328      0.11429148131423
  N   4.05993293416230      5.01627441800728     -0.20672133543122
  C   2.93517854590265      5.62246559947482     -0.12922163645205
  N   2.85085828751505      6.95443855529387     -0.30892410619269
  C   4.03056533742899      7.74727520023170     -0.55808677043208
  C   4.82184084730229      8.00094939375302      0.65868793293174
  N   5.42907932323310      8.22094682095135      1.60387014565046
  H   6.07130090325047      3.43738590376036      0.34132950771114
  H   6.75349776508309      0.59700160414585      0.66701338652354
  H   3.27794430718936     -1.65597120988952      0.08759656720794
  H   1.99374791906178      5.10934871835984      0.06626979868503
  H   1.98817806082274      7.41930806042983     -0.08577607652017
  H   3.73731741840420      8.70334830618133     -0.98783383635568
  H   4.66431815886981      7.22000420021368     -1.27097955026310
