20
Coordinates from ORCA-job 13817optt
  Br  1.07166288200901      0.24179874855992     -0.04559798080797
  C   2.93142318953739      0.18800400764000     -0.01693795692813
  C   3.73084108161538      1.30305380803723     -0.00752061079659
  N   3.42597902527001      2.62137624169735     -0.01246173460521
  C   4.63442567012444      3.17101880403885     -0.00137136313691
  N   5.72111958345881      2.35509948206575      0.01003924667424
  C   5.15963125856652      1.15300743365829      0.00654181800137
  C   5.73018856168308     -0.13997812025453      0.01138944497558
  O   7.09680547398325     -0.17213634691812      0.01783870930910
  C   7.81331284173716     -1.31481689803779      0.01659489018790
  O   7.35735282485134     -2.41915924272072      0.02052707929272
  C   9.22802327314945     -1.00868448776312      0.00841496728765
  C   10.40382890770034     -0.79592139878010      0.00160723098019
  C   4.88434636198570     -1.21556774607355      0.00609167988212
  N   3.52908902438394     -1.01405014254179     -0.00763758069923
  C   4.80027776622887      4.60115527146533     -0.00092344956459
  N   4.93623884215881      5.73850013211228     -0.00110746037915
  H   11.45068753436012     -0.59906590004097     -0.00492058540780
  H   5.20940807617065     -2.23940494668425      0.01093827825932
  H   2.93635782102567     -1.83222869946006     -0.01250462252462
