22
Coordinates from ORCA-job 13827optt
  Br  1.24767585532324     -0.45736774529692     -0.92918626940264
  C   3.02119135884979     -0.25261755928799     -0.36439078280775
  C   3.83548319438933     -1.35610135992086     -0.29423835668858
  N   3.63938115203870     -2.68228430081899     -0.52389587171560
  C   4.83874166087899     -3.19416046380016     -0.29977647594058
  N   5.84851858351987     -2.34360755838451      0.05876300058345
  C   5.21645419646331     -1.18937874495928      0.06106615832878
  N   5.70211946261553      0.04500068265232      0.32090137742976
  C   4.90214128351883      1.12403971926530      0.26343718413379
  C   3.56738897422865      1.02099178353094     -0.06134413989169
  C   2.77120325951031      2.25341354702649     -0.08331274550912
  C   3.03913070207065      3.43290473990066     -0.71690057114840
  O   2.01213932835787      4.28919622154391     -0.43912341423284
  C   1.19275088594117      3.58938994764805      0.34992049729566
  N   1.57812277146163      2.38600644701717      0.59850180224912
  C   4.08236925271026      3.91807631549501     -1.61456202579251
  O   5.09319819550921      3.30993009086340     -1.85706504628223
  H   5.02911402136616     -4.25394286053923     -0.39545978510677
  H   6.68266750823235      0.14454288378078      0.54770349706572
  H   5.35978979610509      2.07832543837423      0.47274722218930
  H   0.30436966179939      4.08635149994383      0.70457081156156
  H   3.87304889510961      4.90329127596582     -2.06535606631842
