22
Coordinates from ORCA-job 13823optt
  Br  1.42323633809469      0.14141097974978     -0.51489158609235
  C   3.26877920752105      0.03495318186168     -0.20422225879246
  C   3.88875807889462     -1.18220692641333     -0.08724699474066
  N   3.44999139926882     -2.45962555786943     -0.15376721137109
  C   4.56373042906261     -3.15700973416623      0.05424352374693
  N   5.72535656070376     -2.47758963522260      0.25878553502891
  C   5.31070201694488     -1.22817536022659      0.16870237548377
  N   6.01265354367086     -0.09242489118284      0.28426854589266
  C   5.40858892699163      1.11958634841503      0.15906761737964
  C   4.04438309967428      1.21165045261075     -0.08747807217154
  N   3.48064513339458      2.46312114656848     -0.21521566815246
  C   4.15890421243185      3.67151153648814     -0.14165345914177
  N   3.65090403958140      4.83069167745062     -0.28877827964029
  C   5.58620102617437      3.54343461780046      0.13535990848351
  C   6.17239607129408      2.34076611733186      0.27636045485741
  C   7.57457711100143      2.21454176942711      0.55231920063605
  N   8.68319401712165      2.02044576064562      0.77374612829643
  H   4.55686673082789     -4.23815018150788      0.06206211377037
  H   7.01022855192695     -0.14210920696457      0.47051405896471
  H   2.48857449288108      2.49254364929735     -0.40643675680384
  H   2.65163132981604      4.80170533891040     -0.48224033813120
  H   6.14369768272145      4.46492891699620      0.21550116249726
