21
Coordinates from ORCA-job 13824optt
  Br  1.70312367358942     -0.49171256228954      1.64957568484538
  C   3.32863120469431     -0.15288092190967      0.81244110531545
  C   3.72889211007717      1.02750980778332      0.32949569860851
  N   5.09512787007561      1.19033903216407     -0.06191539020997
  C   5.33203324825157      2.53887779661294     -0.07465547706169
  N   4.31293880083997      3.27630990700790      0.17122699260245
  C   3.20091341268981      2.42354585790006      0.30378572630378
  N   2.02333940498865      2.90224524509582      0.33859306015691
  C   0.90470798777179      2.14475566936464      0.07945713436121
  C   0.58337678623064      1.25206032293649     -0.92736425625290
  C   -0.76547286721798      0.93147629640746     -0.68724925460945
  N   -1.24457427862416      1.56199830669457      0.37121408232831
  N   -0.22079351668081      2.30730469492036      0.80737500543111
  C   6.00456657435423      0.16021615669774     -0.18717693523257
  N   5.79644921158358     -1.05169661691773      0.09986897502535
  S   4.35314126864388     -1.58299027598522      0.78502534745354
  H   6.32727924068395      2.90988663805579     -0.28410504799508
  H   1.22954137347857      0.90975527294728     -1.71691927822154
  H   -1.40364100237587      0.26596009375456     -1.24627410265810
  H   -0.32842223479355      2.90316855967421      1.61084369783928
  H   6.97584173173917      0.45687071908493     -0.57524276802997
