23
Coordinates from ORCA-job 13834optt
  Br  0.76679386038148      0.58241267243408     -0.73547791728672
  C   2.54519721453993      0.24180521685356     -0.28442462573983
  C   3.41279866933097      1.21089650393889      0.00119204859476
  N   4.76198947255984      0.95385605328964      0.32220965720702
  C   5.34903812724957      2.16481476863434      0.54626757714132
  N   4.57656852131327      3.18793950327818      0.45409017213201
  C   3.29907114428399      2.69503394501392      0.09821483366488
  N   2.24357352043635      3.36524297512501     -0.09039317516268
  C   5.37927339911953     -0.27914603895323      0.13757720231170
  C   4.69375897575472     -1.38189507609183     -0.13427472109379
  O   5.35171119598442     -2.53257139765114     -0.44650628403592
  C   5.06890134632046     -3.62088190038646      0.33998318742788
  C   5.22829960565180     -4.92792851066081     -0.04674957110770
  N   4.89256030976822     -5.65566940215299      1.04085247665630
  N   4.52284145118680     -4.91856973358617      2.08323317615952
  C   4.62855789735141     -3.66382531150840      1.67612575300867
  S   2.91523686119165     -1.48142202100010     -0.24777810707177
  H   6.40436561503567      2.20816058913103      0.78546818374925
  H   2.44493398439099      4.35357805731891      0.06002989529602
  H   6.45958492315136     -0.29884318187299      0.17319305712124
  H   5.55073721599652     -5.36481152487562     -0.97522193450951
  H   4.89130593151248     -6.65740031931578      1.12596727686053
  H   4.37990075748850     -2.84577586696202      2.33242183867682
