21
Coordinates from ORCA-job 13839optt
  Br  1.12827079583261     -0.05932989555590     -0.37054056386146
  C   2.97688210931392      0.06121597032104     -0.18131940237632
  C   3.68284574852740      1.21506260583976     -0.07426533361746
  N   3.34623930222451      2.52527819486696     -0.05847768364086
  C   4.53456834976998      3.10512772938004      0.05647283025255
  N   5.64265991502564      2.31253404355253      0.12154663225572
  C   5.12991045331370      1.09980050706859      0.04221321838357
  N   5.77688275367894     -0.08236249082858      0.06802302395609
  C   5.04192196949703     -1.14721275276306     -0.03053129769794
  N   3.67784799679242     -1.10454056350537     -0.15951406137020
  C   5.68354625906673     -2.48122070217929     -0.01272254258279
  C   7.00839982842840     -2.59353180387446     -0.23932453929644
  N   7.73362929363051     -3.76199912349687     -0.23467237284480
  C   7.20523705160158     -4.91183097134371     -0.06082610046602
  C   5.78222333283281     -5.23718487915574      0.15967331265030
  O   5.35209660982327     -6.34981001140873      0.26812386189817
  S   4.66953504104849     -3.84892668882219      0.31936008624745
  H   4.62918031789561      4.18148862595529      0.10003600350445
  H   3.16014152373119     -1.96596726157479     -0.27811289433547
  H   7.57221583152262     -1.69203309544576     -0.43681699934995
  H   7.84676551644258     -5.79055743702974     -0.07432517770858
