26
Coordinates from ORCA-job 13847optt
  Br  1.52692507588418      0.01946779364842     -1.61715963149633
  C   3.16363911582388     -0.17143216106627     -0.73968192127273
  C   3.78313299326927     -1.33186769580697     -0.52173402784205
  N   3.55426271892618     -2.67222167958074     -0.77494847648391
  C   4.60428146614049     -3.33553103630978     -0.21787643711802
  N   5.49742811222166     -2.58337684553429      0.36174251633685
  C   5.03805982862034     -1.28704671577229      0.20579295144337
  N   5.59882256643598     -0.20488243900705      0.61963300060410
  C   4.97125941895434      0.98857149738216      0.33769635950011
  N   5.36853547287446      2.15117001929562      0.59389672150487
  O   3.70546829360410      0.95976196103136     -0.31981217185811
  C   4.65651833719699     -4.82697718786382     -0.23175754827267
  C   3.96495534005021     -5.42511650097545      1.01294638784806
  C   3.50613185632820     -6.79960298123318      0.52573535845800
  C   3.33751343551056     -6.63211421821001     -0.97342184642723
  N   2.85017589280699     -7.41120681466333     -1.84010299633284
  N   3.87479547997979     -5.39619951659621     -1.31218946970540
  H   2.79155633722012     -3.10225747552507     -1.27304444108022
  H   6.26456182266662      2.09016690764620      1.06840368451506
  H   5.71059580499833     -5.11909521265619     -0.25822525368738
  H   3.10356904635313     -4.80719052270072      1.27082512737966
  H   4.63601935552604     -5.45133245662865      1.86720737632471
  H   2.58750536947290     -7.14625801017846      0.99506064643321
  H   4.27577265761551     -7.55626373251288      0.69320103213576
  H   2.48672622628693     -8.25643055386507     -1.40946623217254
  H   4.18478797523274     -5.29673442231730     -2.26872070873434
