21
Coordinates from ORCA-job 13840optt
  Br  1.05975553469809     -0.12677686928877     -0.71133901267480
  C   2.84994432298935     -0.12524199761943     -0.18300935711122
  C   3.58361208340659     -1.26434178335819     -0.10525280941424
  N   3.28614360473185     -2.57229665751571     -0.31664345064765
  C   4.45253469789651     -3.15254398013473     -0.08246063116256
  N   5.51577048469324     -2.36445332907168      0.26067855712556
  C   4.98733499954746     -1.15907545145657      0.25268269088503
  N   5.58827949127327      0.02655341373311      0.50778620492697
  C   4.83077205262212      1.06351460432221      0.43031248716512
  N   3.48511515109331      1.05585732731112      0.11343079593215
  C   2.82231967644810      2.30950551634548      0.11578350841108
  C   1.83831470795466      2.72749521484299      0.97261889083522
  N   1.56412707698607      3.99858945601311      0.58153092514190
  C   2.38865370702201      4.29166900569804     -0.46065273610718
  N   3.16407577319589      3.27866382846197     -0.76329814728695
  C   2.36704103965026      5.56654582757225     -1.09930035460891
  N   2.31051917148550      6.60685312002149     -1.57688551208392
  H   4.57082244023589     -4.22460093032770     -0.15980936451800
  H   5.22631793331224      2.05386509682173      0.61686278506057
  H   1.32734411109069      2.23263044310250      1.77926045558806
  H   0.87820193966685      4.61858814452674      0.98370407454377
