23
Coordinates from ORCA-job 13843optt
  Br  1.11292173416026     -0.22412529259119      0.63326708479168
  C   2.93313497426136      0.00667368104525      0.33341513851861
  C   3.56237897601824      1.20865173520801      0.21724269989686
  N   3.13746039294261      2.48793849508356      0.26425145209046
  C   4.26351708742625      3.15682561364360      0.04834908221341
  N   5.40872943574154      2.44241318646735     -0.13603728401391
  C   4.99287538961956      1.19193206452790     -0.03323384599103
  N   5.72022596285364      0.06266498057195     -0.14079880958196
  C   5.05757395126856     -1.04665968433698     -0.01352730375256
  N   3.70347478050865     -1.10188472765720      0.21657746201843
  C   5.70422588037459     -2.32015704944853     -0.11225633917240
  C   6.21320242816670     -3.40008626197626     -0.19166307507886
  C   4.27262443550249      4.64915029698024     -0.00447991599778
  N   3.23198586465141      5.35753312388853      0.16660238059696
  N   5.51825314980951      5.16444510018234     -0.26022645016695
  C   5.85298647612973      6.50856003684112     -0.41297644881807
  N   5.10913493713307      7.52260557715740     -0.34138251638329
  H   3.27172570424244     -2.01300607284714      0.29694763173253
  H   6.68308952134450     -4.35277624032846     -0.26905307856793
  H   2.43702452002313      4.74445223010000      0.33678247238198
  H   6.25140374719019      4.47833523316273     -0.36545107866154
  H   6.91575377986802      6.62784062662095     -0.62279214167817
  H   4.14629687076350      7.25567334770480     -0.13855711637647
