21
Coordinates from ORCA-job 13854optt
  Br  4.87128738389218      1.10119012649167      3.32015707890076
  C   5.16653848527463      0.77386671428550      1.51824904620271
  C   4.66634381432579      1.56915454987619      0.54987388678724
  N   3.89127670843572      2.71626284681494      0.57750967564520
  C   3.74204395222338      3.03592706813175     -0.66901797382335
  N   4.34633419067555      2.19641168070698     -1.56568717906166
  C   4.96548305836002      1.21666737158045     -0.81348383587044
  N   5.61858079081191      0.20302127054486     -1.23178006359163
  N   6.08642637515539     -0.60749278188669     -0.24993563742614
  C   6.01467189868046     -0.35308322893866      1.13189464327724
  N   6.65645171555212     -0.98486193428973      2.04357859888573
  C   7.45768151061856     -2.09054539378481      1.87688603305700
  O   8.57147377871235     -2.19881375052585      2.29826793586337
  N   6.81091624990353     -3.19685855087115      1.24331307811488
  C   6.50709316311584     -3.03204379647693      0.03252310140377
  C   6.73233042655133     -1.78557151147083     -0.76632226359329
  N   7.31497346717280     -1.72419442704442     -1.87491285922231
  H   3.18633687193928      3.89818995175755     -1.00894608375697
  H   4.35236617756370      2.26891607197914     -2.56899031681247
  H   6.05394041312844     -3.85427691802868     -0.52161374955243
  H   7.66144956790695     -2.64186535885128     -2.15156311542720
