24
Coordinates from ORCA-job 13857optt
  Br  1.11792348556973     -0.05720964316772      0.12201736199730
  C   2.95805920448016      0.01585930083366     -0.08893055358479
  C   3.67790359235984      1.12809077954515     -0.11539767883859
  N   5.08303685885267      1.00096180127925     -0.25227009874484
  C   5.60164118124231      2.25473957863196     -0.11295932009959
  N   4.72813437083395      3.19585546853799     -0.01599433016057
  C   3.44910910830403      2.58254934027773     -0.00978253172343
  N   2.31424002028558      3.13728260032502      0.05653297009502
  N   5.73691533503855     -0.17213389180145      0.01120692647482
  C   5.00166683017292     -1.21169687454231      0.01404755753655
  N   3.62582911926155     -1.21874739429000     -0.22722445384282
  C   5.64957224971053     -2.54280201651121      0.24056705904032
  N   5.17841742974514     -3.65861084140618     -0.15257476416701
  N   6.81956529323863     -2.47564164155776      0.92601148330685
  C   7.62937061006098     -3.66876605437393      1.02318945749826
  C   8.83255283102809     -3.38804067475578      1.80655838779166
  N   9.77389488439200     -3.14835724747546      2.41219316169140
  H   6.67517943466597      2.38946242475497     -0.11028096004052
  H   2.43379624554202      4.14879740085860      0.10560399992937
  H   3.12726812742274     -2.01717482775255      0.14274550730827
  H   4.31752667318870     -3.55543839687605     -0.67920709126050
  H   7.24798396670137     -1.56921231211280      1.03293596152293
  H   7.91840653475978     -4.04266741350102      0.03613832336681
  H   7.05800661314261     -4.46209946492009      1.50787362490309
