19
Coordinates from ORCA-job 13850optt
  Br  1.26309033601254      0.11191940750104      1.17573280305668
  C   3.01189284806425     -0.07540492174915      0.60249315848794
  C   3.63814345067414     -1.22232851673978      0.27835318455597
  N   3.26597423419907     -2.53096221962956      0.25527502402980
  C   4.37226694403930     -3.11508297218822     -0.15541527511605
  N   5.47244748064541     -2.32319404157714     -0.42064307926305
  C   5.02551897794598     -1.12808329319004     -0.15262682068992
  N   5.67416182072492      0.06744453053128     -0.24498435884626
  C   4.98795376803373      1.08422997452028      0.08408612167241
  O   3.69416829885473      1.07897781454968      0.51063810249183
  C   5.52316424410367      2.47592269497975      0.01794870898642
  N   6.72536997351595      2.68663663016482     -0.36081100882651
  C   7.07561614777960      4.03151851560611     -0.46506207740996
  O   7.91199411071780      4.45480520932853     -1.19710506233191
  N   6.37329492272108      4.95709275915304      0.41053491616370
  N   5.21772138367675      4.69457216197725      0.76025114330515
  N   4.69475214974990      3.48242226707023      0.39640819979724
  H   4.43246113598634     -4.18616277600913     -0.28719708025479
  H   3.76400777255482      3.31867677570100      0.74712340019130
