21
Coordinates from ORCA-job 13852optt
  Br  0.98138949710972      0.53432853564418     -0.52362603275640
  C   2.81103537519739      0.24390762642637     -0.27036575706496
  C   3.65763771397889      1.27139058454398      0.05893419317678
  N   3.49226723509782      2.60323737441495      0.27629253707754
  C   4.72048421895868      3.00663690950271      0.55112296641414
  N   5.72490257272432      2.07269417919945      0.54491757347877
  C   5.05754233199865      0.98616987396722      0.23717587143165
  N   5.52080819185088     -0.27992912755253      0.09305640704354
  C   4.67132590981804     -1.27421073218638     -0.23223307255392
  O   5.28484784232640     -2.48190794027174     -0.39385971168558
  C   4.90201906487679     -3.53365356634517      0.38651497312670
  N   4.05945755049483     -3.60718496288537      1.30439991082656
  C   5.70003275556009     -4.76298102932091      0.00983599084144
  O   6.53791622570688     -4.77030630133772     -0.83585392046792
  C   5.36341272596785     -5.96880795895037      0.78834807291393
  N   5.14146215723543     -6.93351964338817      1.36309086482098
  C   3.33360622451647     -1.05861578503413     -0.42235580023943
  H   4.94264063373666      4.03986399039536      0.77774134145219
  H   6.50773211742603     -0.47989981006265      0.20640744899808
  H   3.56563745985413     -2.73775171566645      1.50422289558478
  H   2.69984219556399     -1.88546050109263     -0.70676675241890
