21
Coordinates from ORCA-job 13855optt
  Br  1.05203788817232     -0.03757395009649     -0.23081983654079
  C   2.91335103920105      0.08908425375113     -0.12855489279377
  C   3.57230986843371      1.29065411058433     -0.10188357523208
  N   3.21939731120076      2.58993612194352     -0.12477414876616
  C   4.40403030017838      3.21522355596366     -0.08069969766836
  N   5.52900236182940      2.44790915734596     -0.02871280279360
  C   5.01479710304021      1.23487432168213     -0.04005389712114
  N   5.63405798675644      0.05129005310436     -0.00587617275010
  N   5.00638596227425     -1.11081011322972     -0.02349217968718
  C   3.69670747345709     -1.08669365945100     -0.08308610459850
  C   4.48230965883915      4.66893357724357     -0.08673775656503
  C   5.64814317922507      5.40483525979923     -0.10973985741017
  S   5.32639395734591      7.08863393432440     -0.11269026202276
  C   3.64276492868950      6.82315148432533     -0.08039500436248
  C   3.33071129267695      5.50072913526066     -0.07079009549536
  C   6.99841524482257      4.96612920454653     -0.13905097007036
  N   8.11422973669295      4.69685281731974     -0.16411206833353
  H   6.64459677563406      0.00328273043002      0.03637239314589
  H   3.21952181378855     -2.05654729537118     -0.09804224219336
  H   2.96937912660240      7.66499726150466     -0.06987334841303
  H   2.32845699113923      5.10110803901915     -0.05098748032814
