21
Coordinates from ORCA-job 13866optt
  Br  1.03993139135775      0.03321005970175      0.01566912650585
  C   2.89754798635826     -0.05569384990401      0.07144328816938
  C   3.56069290191042     -1.21644589447004      0.09899177699965
  N   4.98022607488331     -1.21752127917159      0.06553292536211
  C   5.37079703715069     -2.52686426405629      0.08759339363137
  N   4.40243859560295     -3.37739222120461      0.12909612604100
  C   3.18448898945000     -2.65213389631738      0.14114633464177
  O   2.07572167839903     -3.11207650673501      0.17347647922306
  C   5.64644608456849     -0.02388450551338      0.05625627256532
  C   4.97171587617064      1.13783318689198      0.07632347714220
  N   3.55891271107301      1.15030340738403      0.10696559620162
  C   5.72073967327193      2.37731404752906      0.14079358635307
  N   5.30289880026244      3.56781993625323      0.25006860730834
  N   7.10336560859794      2.17404393549780      0.05632173276524
  C   7.78190124331839      0.99386655062697      0.03555154469274
  O   8.96212091056073      0.86725365838075      0.00396008665072
  O   6.98354545245760     -0.13659044020740      0.05874909828145
  H   6.42333702078661     -2.77419138146990      0.07232312228704
  H   3.09114848276617      1.93041547874992     -0.33370426211883
  H   4.29355221202764      3.62397245210157      0.33964742795317
  H   7.67647126902591      3.00676152593257      0.08179425934373
