21
Coordinates from ORCA-job 13861optt
  Br  1.25266904310588      0.07906757531397      0.16358436957307
  C   3.09664744954592     -0.01289517953769     -0.05480187340223
  C   3.80597118874387     -1.16917882299255      0.07441938867387
  N   3.52428925228820     -2.45778089401674      0.36842249802018
  C   4.72229354135977     -3.02252303664202      0.33024290556624
  N   5.80718320113013     -2.23653029959079      0.02933487181388
  C   5.23181202204586     -1.07320384292886     -0.13430095655070
  N   5.74372886825644      0.14753693170020     -0.41896225869313
  N   4.97398537451412      1.24712496132714     -0.52138701586173
  N   3.72131332493208      1.16170281756287     -0.35017024281486
  C   7.14461417740343      0.33701111605521     -0.75066820760657
  O   7.70702531970494     -0.47925581140677     -1.39963974737081
  C   7.84480118002312      1.56471837360131     -0.17815543739152
  N   7.41052085995381      2.33592201066048      0.71846740231945
  N   9.10129970992620      1.68883596864617     -0.73009514412858
  C   9.99881042455231      2.69250007952569     -0.40560439931306
  O   11.09859777285052      2.74053029936271     -0.87908395686261
  H   4.85999982014890     -4.07618177660770      0.52831021864092
  H   6.45636276782537      2.13044378663025      0.99098334650227
  H   9.41365339643129      0.97862963353196     -1.37931094100356
  H   9.59442130525778      3.41552610980516      0.31141517988948
