24
Coordinates from ORCA-job 13860optt
  Br  4.83067768015945     -0.55105383667936     -4.32900162995791
  C   3.56290593405610     -1.06326484363576     -3.06111193199058
  C   3.86549734640336     -1.88809707817133     -2.01206954256577
  N   4.95363743994466     -2.54177539106518     -1.55345400511886
  C   4.48230188549747     -3.16623682576110     -0.47841092677990
  N   3.16006058237239     -2.98829320416778     -0.15875440213488
  C   2.77635720140667     -2.18616173918304     -1.12647725073848
  N   1.58296513797132     -1.64467680231120     -1.40114395124283
  N   1.35170714881765     -0.85238804560902     -2.43967725282989
  N   2.31100007031027     -0.57381172101292     -3.23563866923704
  C   5.36614640529319     -4.03329449079652      0.37695404336426
  O   5.69123075962955     -3.40042662958597      1.59866104730714
  C   4.73436607592475     -3.60873730597610      2.62056494936447
  C   4.69570920727626     -5.07786470786687      2.97751564740058
  N   4.45104987416454     -5.84083573269429      1.76583110405928
  C   4.72974760362154     -5.41953759699551      0.51254641095145
  O   4.50765200790379     -6.07759734053725     -0.48043313531914
  H   0.76971931249165     -1.81783688046404     -0.82313635904778
  H   6.30204526357747     -4.17146592926099     -0.16313447282818
  H   3.74682439207066     -3.26803144703986      2.29735454125314
  H   5.05945754981096     -3.01493098462583      3.47300338111192
  H   3.89115366423722     -5.26776345668333      3.68955376616779
  H   5.64237817010668     -5.37364910663627      3.43810535334632
  H   4.09040928695238     -6.78126890324048      1.82535328546488
