26
Coordinates from ORCA-job 13872optt
  Br  1.10417454885456      0.51490501207264      0.74254281105647
  C   2.87070089119347      0.21250965770781      0.21835711887210
  C   3.70720902043066      1.23094760348850     -0.11112956519522
  N   3.60022616988110      2.59100623523217     -0.17401512603841
  C   4.79873308642265      2.94881426656121     -0.57833136840966
  N   5.73855100502184      1.95758009218625     -0.80243019218101
  C   5.05156570305201      0.89759175048518     -0.51071966524601
  O   5.49664762373798     -0.35902521218517     -0.56240427144532
  C   4.65680005659550     -1.35550029526922     -0.22837990478162
  C   5.32891389239916     -2.68316707944197     -0.34438471760352
  C   4.46624837515412     -3.86743323503019      0.05156532596165
  N   5.23075906647255     -5.07946971372738     -0.09082342211137
  C   4.72922885217245     -6.30515371090963      0.18910295429983
  N   3.56819465107173     -6.64451827813288      0.58889031930197
  C   5.71903187398207     -7.42580451015674     -0.01075935583208
  O   6.84794672036471     -7.23088740038028     -0.36412868887717
  C   3.37654249498853     -1.11759194662277      0.15428990012219
  H   5.06191964273199      3.98463053898808     -0.73922003517493
  H   6.22941498874186     -2.65891126166588      0.27667480595814
  H   5.66809907728171     -2.80191587463697     -1.37791757490831
  H   3.57322079185349     -3.91363877651853     -0.58265183892122
  H   4.12655541618757     -3.75775651482193      1.08842778651629
  H   6.19845573744475     -5.04924059095359     -0.37771281837390
  H   2.94165086973286     -5.85073443860667      0.71239851385667
  H   5.30885236012353     -8.42565922161534      0.19683896867805
  H   2.73735708410703     -1.94757709604667      0.41292004047642
