19
Coordinates from ORCA-job 13877optt
  Br  1.00285310729424     -0.33643948523278     -0.49142252055933
  C   2.83778751606255     -0.11009798717090     -0.33585838166264
  C   3.42298468572407      1.11023388501686     -0.16867141598882
  N   2.98692513121009      2.39247045874104     -0.07197764294181
  C   4.11972988602756      3.05181461601835      0.07401355762673
  N   5.30746957277655      2.34330757824902      0.08885729863828
  C   4.85879754511105      1.13852207820691     -0.06192489064419
  O   5.58061993578846      0.01781968244351     -0.12020477782645
  C   4.89118553639662     -1.11256717175492     -0.29155024258413
  N   3.61891986654631     -1.22098605335822     -0.39644253681348
  C   5.80916432139862     -2.31187828946129     -0.34357491106675
  O   6.98255198115704     -2.22849170065531     -0.16902451152805
  O   5.11073059685711     -3.42308188464832     -0.60177154041760
  C   5.80207155098671     -4.63338095916602     -0.65972039461938
  N   5.21207098819060     -5.70993063149000     -0.85330579428213
  C   4.13964289298532      4.48140265536813      0.21397097378007
  N   4.15367068218190      5.62109825150248      0.32609789696554
  H   6.87260420508090     -4.53508112379667     -0.52391863959416
  H   4.20421999822427     -5.58573391881188     -0.95357152648170
