21
Coordinates from ORCA-job 13882optt
  Br  1.03499089182950     -0.35182984332309     -0.67232132444123
  C   2.76573526149096      0.10854438743276     -0.23873062469719
  C   3.25122191439871      1.34915530348042     -0.10156975681394
  N   2.74347953102114      2.62277437949496     -0.20532204731061
  C   3.79220716480253      3.35824054347455      0.04198042555127
  N   5.00438457401894      2.70206912022039      0.31168548694019
  C   4.64544737871721      1.47557761308761      0.22057538213165
  O   5.43676712231061      0.39926357010930      0.39294601757669
  C   4.92346170704882     -0.84528117104586      0.26336743654270
  O   5.56845572512374     -1.81520272052473      0.41064181445748
  O   3.58368098689808     -0.94728894676137     -0.05696796815179
  C   3.68618102084535      4.84452139136288      0.04593538615644
  N   2.60434849781844      5.48259857800892     -0.05631484341372
  O   4.87691341365219      5.43530402726169      0.16974341079277
  C   4.82925145082635      6.86210100079056      0.18035526788821
  C   6.18595764567469      7.37892958338825      0.30007182901159
  C   7.28296531589199      7.84481331156702      0.39756897167804
  H   1.82731865711750      4.83124500212956     -0.14452823032298
  H   4.20959432711337      7.19567179814683      1.01513380828283
  H   4.35679339410749      7.21648864034676     -0.73775938494615
  H   8.26184401929233      8.25230443135255      0.48450894308777
