26
Coordinates from ORCA-job 13883optt
  Br  0.90449297013778     -0.36255638037225      0.46299816971649
  C   2.74738426122269     -0.14670224398086      0.27084882721071
  C   3.57232617913782     -1.21265627832029      0.31397357925080
  N   3.41391188121805     -2.55606148479503      0.48199210106278
  C   4.65319858165506     -2.99131603296177      0.40460655104818
  N   5.66951206953532     -2.07528322585429      0.19955772662427
  C   4.99280322637112     -0.96950963030505      0.14324112023674
  O   5.48795417218215      0.23632205196771     -0.04527621839841
  N   4.64961334430834      1.30980933243453     -0.08224468774183
  C   3.37505951454063      1.14522895741728      0.07151108194816
  C   2.56090997280603      2.41701999698067     -0.01338843331360
  C   1.69778315129971      2.72279374778649      1.24967711953651
  C   2.08389612023564      4.14990192642986      1.65208382441071
  N   2.51909894252385      4.71869421273135      0.38251998899008
  C   3.40992836078783      3.70733485656070     -0.16614753851140
  C   1.69269704831145      2.36111100535023     -1.26463187062127
  O   1.79629738584282      1.53184376015536     -2.12156662899289
  H   4.89228597717950     -4.04194888707299      0.49654305571706
  H   1.88096477965892      2.00224172178806      2.04488257854190
  H   0.63809932481229      2.66948065634637      1.00028771453019
  H   2.89222146701178      4.12249240209203      2.39550494590136
  H   1.24748360939902      4.70696915773977      2.07090233110594
  H   2.98006691658374      5.61368975640514      0.48770798716578
  H   4.33704656678050      3.59275726077539      0.40401216743710
  H   3.67151457642171      3.91601790662365     -1.20433770834636
  H   0.97744960003620      3.20032545407792     -1.34325778450901
