20
Coordinates from ORCA-job 13888optt
  Br  1.20511622443232     -0.21995365783477     -0.76601042601868
  C   2.98321567334432      0.13436726891054     -0.30576417822063
  C   3.52358475877608      1.40765696883492     -0.09720602290623
  N   2.91023975290440      2.54039099265687     -0.16673730157678
  C   3.93700628684797      3.47330867235715      0.12028738109414
  N   5.12674714291392      3.05189625606990      0.37098295070226
  C   5.01396881124752      1.65756203086198      0.26120297244086
  O   5.85526449121856      0.82319948564209      0.40386970349761
  N   4.39727106688170     -1.83553947421658     -0.10222011116986
  N   3.77207577125161     -0.92393171170433     -0.18900487854245
  C   3.53348342490820      4.91013203098663      0.07720328283284
  C   4.51021237204351      5.84287130201683      0.62800918662816
  C   5.29540762170531      6.64187652601558      1.04530856264914
  C   3.26293765023288      5.31813840978883     -1.38128326224113
  O   3.62147902545930      4.70497093112643     -2.34053056378543
  C   2.47215175084673      6.61892983772540     -1.56671406584420
  O   1.90084724139723      7.15223387714884     -0.66500729536242
  H   2.58067229869700      5.01882825169591      0.60756029842568
  H   5.99924193268542      7.34095710526605      1.43009143780634
  H   2.45307670220595      6.98110489665164     -2.60903767040921
