21
Coordinates from ORCA-job 13886optt
  Br  0.86966511222678      0.63004257478152     -0.47502431523852
  C   2.66822112138036      0.31958615380062     -0.10724179112503
  C   3.58110434049462      1.27917959569666     -0.06544741794273
  N   4.93028242204664      1.03714477798544      0.21186392505300
  C   5.56778466973908      2.23372066237152      0.19267556608882
  N   4.83027648784207      3.25794967031210     -0.09181379482619
  C   3.52298071807351      2.77614299833846     -0.27699339854773
  O   2.54489595951834      3.41079719525668     -0.55478602820925
  N   5.50251787166826     -0.14456235400514      0.58050451229614
  C   4.78039346259461     -1.17966838216902      0.57896027142376
  O   5.25173766841073     -2.38714249490551      0.91363000712843
  C   6.58861476456885     -2.55356101337155      1.21037004125949
  C   7.32241251398445     -3.62817501058598      0.77899064171884
  N   8.53336400563598     -3.47373974887148      1.35030840412311
  N   8.62773709471621     -2.38342528507762      2.10941891110946
  C   7.44226405658885     -1.80461137354245      2.04143713242689
  S   3.05793544128829     -1.37429367868731      0.17635114024955
  H   6.62798007217786      2.26233940105523      0.40818214727555
  H   7.06834730272842     -4.45680694643360      0.14155496821832
  H   9.33428331853924     -4.07357780652707      1.25324475972826
  H   7.24620159577672     -0.88633893542148      2.56581431778982
