23
Coordinates from ORCA-job 13897optt
  Br  1.50783359603477      0.78502044856497      0.13036190875384
  C   3.26257262305697      0.14459226815504      0.08639923877026
  C   3.50832639051960     -1.15959802878156     -0.16840103006112
  N   2.61959510879377     -2.19030061035300     -0.38936070963774
  C   3.40256233219741     -3.21055496065899     -0.58508568974547
  N   4.77781474042149     -2.98105206990991     -0.52987318068929
  C   4.83631273017218     -1.71079991496614     -0.26883067349057
  S   6.28352339846213     -0.78715226535041     -0.09787691696258
  C   5.64447391481873      0.82087387274523      0.23460651444414
  O   6.40951009185934      1.73048519778718      0.43313831958038
  N   4.26504589085960      1.05758177842752      0.27454247993968
  C   3.96165534173492      2.45589176095145      0.72304093580311
  O   3.67456837195247      2.65404119919554      1.84838104925645
  C   4.06618656202913      3.47179993995039     -0.39332518773448
  N   3.93690480702917      4.82336950758923      0.05091325163047
  C   2.69541327667641      5.35043601446074      0.35095535347385
  N   2.42118552378117      6.38739095502408      1.01595213337788
  H   3.02832725134755     -4.20448672153414     -0.78365047579002
  H   3.27806196104312      3.23239886072761     -1.11497214229085
  H   5.01960027883365      3.31330658352647     -0.89894746716875
  H   4.71606858878746      5.19197396380139      0.57745645005148
  H   1.87953648418553      4.78455899635174     -0.10337440656898
  H   3.25492073540339      6.83422322429554      1.39895024505831
