25
Coordinates from ORCA-job 13899optt
  Br  1.04055193314125     -0.60071166815360      0.03638456121636
  C   2.86398007360634     -0.19378579062937     -0.11031249664189
  C   3.74151922936891     -1.22978685330787     -0.26342416016124
  N   3.52406472525303     -2.57023775535537     -0.34208409405540
  C   4.74031714062554     -3.06102461594828     -0.47519422077966
  N   5.79297017307627     -2.18258505417977     -0.49577470189864
  C   5.18244012032286     -1.02741418676051     -0.36310778879408
  S   5.84569222770705      0.52144259045935     -0.28157624464905
  N   4.57898411433524      1.50412232466556     -0.10415804162333
  C   3.32407092303195      1.16565960888995     -0.03918866870460
  C   2.31641308057741      2.30697607773609      0.06860916802064
  N   1.64558692646138      2.42288862984916     -1.22421043484435
  C   2.33506466981881      3.32857564038188     -2.13737674844382
  C   2.46339394067511      4.74263866009283     -1.58096998808804
  C   2.95643229865197      4.69627792724297     -0.16295361277511
  C   2.93653147111552      3.58691001438265      0.56301698702915
  H   4.91902674176594     -4.12361381011934     -0.56598212428986
  H   1.56492724093409      1.99357773758822      0.79711540014834
  H   0.68645831168755      2.71794322471942     -1.08779034526470
  H   1.80742190506472      3.32221096211872     -3.09099255447148
  H   3.33391618319334      2.92038991849567     -2.31381322755085
  H   1.49852980235094      5.26002555999189     -1.62681349082164
  H   3.15296187006943      5.32920232721353     -2.19317438573475
  H   3.35833523470329      5.60808697351703      0.26466882920319
  H   3.34940966246203      3.57523155710917      1.56510238397484
