16
Coordinates from ORCA-job 13890optt
  Br  1.06396717369370     -0.16727549826706     -0.05544791620362
  C   2.93166357383362     -0.06458609808382     -0.05513934486438
  C   3.65198282804625     -1.22711127453720     -0.05560870876987
  N   3.21508883808312     -2.50986858767375     -0.05627640795377
  C   4.33626963517269     -3.20694661249366     -0.05631297852882
  N   5.52045327118780     -2.51780004007164     -0.05594225510838
  C   5.11298170835804     -1.27042229822374     -0.05563130383417
  S   6.10283968586667      0.09477046664711     -0.05516004662856
  C   4.93699905537092      1.35776225978078     -0.05436898391081
  C   3.56968816492669      1.20817002035280     -0.05442035101065
  S   2.55737989944712      2.62542443197373     -0.05356793721773
  C   3.74209178278798      3.94375515999372     -0.05222990901047
  O   3.34039065655187      5.06418049056526     -0.05092793170170
  N   5.15871122268048      3.69561672643048     -0.05315815432274
  N   5.65192921984035      2.55745258326156     -0.05402565458230
  H   4.33556328415265     -4.28812172965458     -0.05678211635205
