27
Coordinates from ORCA-job 13898optt
  Br  8.63674448719742      2.11586843816427      2.53926082266436
  C   6.85594422082594      2.18535882103687      3.10985294993641
  C   5.89585673124583      2.76692015109213      2.33183281166905
  N   5.95779193334161      3.35441305415830      1.11778400861321
  C   4.71093259070522      3.75001440138083      0.90444995698039
  N   3.78034284554562      3.45101086142893      1.86838402823224
  C   4.50349168317229      2.84066992215855      2.77627306991126
  S   4.00982258199322      2.20054151671423      4.25906864486608
  N   5.35023354914796      1.58519290935500      4.92061212963929
  C   6.52944764780867      1.61984306025803      4.37340871696779
  C   4.31204122187429      4.48054814556748     -0.33395523621669
  C   4.83984547444889      3.79626865073801     -1.59828685503708
  C   4.46990812301677      4.62464147798330     -2.81931036222136
  C   5.09750346944806      6.00112371169231     -2.70907116704569
  N   4.74519611753636      6.62565224327018     -1.43729773322616
  C   4.73771967790657      5.94076399504885     -0.23851213304439
  N   4.94290660579173      6.44378577622420      0.91013624630431
  H   7.32974456354106      1.16523818397464      4.94815505049136
  H   3.21869646467229      4.49321841352364     -0.36561552354285
  H   4.42246020373929      2.79061870255625     -1.66316521326483
  H   5.92472913260459      3.69237448506040     -1.52026411916044
  H   3.38307214363887      4.72221280718871     -2.88765339323128
  H   4.81798839058840      4.14456640938520     -3.73470341770548
  H   4.74558028962632      6.65128407715357     -3.51037468436712
  H   6.18604015718812      5.90757289103259     -2.80899293773663
  H   5.05004316746021      7.58385338864838     -1.34444245234230
  H   5.18991652593432      7.43144350520511      0.85642679186656
