21
Coordinates from ORCA-job 13909optt
  Br  1.21003967577528      0.03927242345012      0.23875781350051
  C   3.06274180447213     -0.00996711168734      0.02816863660766
  C   3.78235505611989     -1.18489293045435     -0.00994955661625
  N   3.15766028394164     -2.39653469551781      0.08229268498747
  C   3.90089213596778     -3.44453080966790      0.01192649851168
  N   5.27478303092556     -3.47389126644498     -0.12022684310702
  C   5.89621234606739     -2.34940200531172     -0.20694957341779
  C   5.20164299900703     -1.07499184676062     -0.17663692186854
  C   5.82935183994130      0.13775036630053     -0.31166267132623
  O   7.16004164981713      0.25342793805707     -0.56941930777415
  N   8.01654399198449     -0.13699479104514      0.50558168398787
  C   8.11379542433377     -1.39253489392501      0.58943599867419
  C   7.39337830080353     -2.39346288934741     -0.25770175944302
  N   7.97587945498089     -3.28538274704881     -0.93125745820767
  C   5.08451816676919      1.37926026437096     -0.27120728079005
  O   5.50627364986830      2.50640441015677     -0.37365348843307
  N   3.69670450058220      1.16467134831844     -0.09467782964692
  H   3.42586502974226     -4.41555863936828      0.07795603158016
  H   8.80318193293170     -1.75734835603641      1.34636185346245
  H   8.99133786348207     -3.22968202890260     -0.83184967253708
  H   3.15780086248643      2.02238826086451     -0.05728883814417
