20
Coordinates from ORCA-job 13901optt
  Br  0.98288858084875     -0.17592421636431      0.00660809589384
  C   2.81986534606297      0.00228988502302     -0.20998468960607
  C   3.43066203854986      1.22495643722168     -0.10851164328195
  N   2.92713525632360      2.45604607810650      0.14210422686207
  C   4.00251066380500      3.21995448859217      0.08800814763805
  N   5.21008922909724      2.62854172630573     -0.16755535334452
  C   4.86449912456595      1.36715388625168     -0.28644563316524
  S   5.80678054805968      0.00963230195682     -0.61059217953861
  N   4.73003119646081     -1.23606772336053     -0.65407404408782
  N   3.47861553201393     -1.15738675145898     -0.47419840139466
  C   3.96495511047639      4.69546736837208      0.34082211301294
  O   3.28357576226673      5.20012366666387      1.18470363138183
  C   4.82908560341861      5.56367559695141     -0.59047741906692
  O   5.00276620942385      5.21013368019207     -1.72393250897542
  C   5.35980878766409      6.85840846775375     -0.03482434395236
  C   6.86310455903840      6.93481078631449     -0.24449214625562
  O   7.61325564639281      7.37334064459972      0.57552368699877
  H   5.10910210872400      7.00545293547787      1.01219120405774
  H   4.91902535472396      7.66615345517201     -0.62867762788944
  H   7.21924334208322      6.55823728622885     -1.22019511528661
