23
Coordinates from ORCA-job 13904optt
  Br  2.07699790518681      0.41451108866681     -0.32444502019899
  C   3.87583153574855     -0.08178863005517     -0.20721185801365
  C   4.29367384922682     -1.35137077195711     -0.04605799092281
  N   3.57927469942474     -2.51658571197096      0.02576103212118
  C   4.43588312937818     -3.63219422996342      0.10408063988152
  N   4.13845925302758     -4.86770748627293      0.11002210849936
  C   5.77232737745313     -3.05853306320688      0.17822465371109
  C   5.70856578715010     -1.68380241340011      0.04546697855877
  C   6.65621139566246     -0.60504270659196     -0.10008373635249
  C   6.13621094920955      0.65251828949923     -0.24345240696801
  N   4.81326309673377      0.91635312709793     -0.30027087286616
  C   8.18628547270776     -0.56547528793187      0.02435545229800
  O   8.66191500788246      0.37764367311806      0.60018762772486
  N   9.07059049669557     -1.46752955536156     -0.62899530775409
  C   9.04968615212152     -2.68099559940850     -0.26950971238633
  N   8.02083336039028     -3.02880489091608      0.60471234085253
  C   7.06490367726804     -3.66078676572115      0.02592429157927
  H   2.57664728385444     -2.57313826916364     -0.03768979984261
  H   3.13739862032996     -5.02988385317411      0.03311478669530
  H   6.78790604897934      1.51247768575999     -0.29351049272277
  H   4.49765725086571      1.86686917704657     -0.40914065760177
  H   9.74868559000656     -3.40241749622846     -0.69388280382558
  H   7.22079206069662     -4.40731630986465     -0.76359925246664
