26
Coordinates from ORCA-job 13902optt
  Br  0.94026647465174     -0.01990218022437     -0.14588348684277
  C   2.78949641565991     -0.00771905454673      0.18965656963144
  C   3.45859974720851     -1.14831834820326      0.47510898608661
  N   3.08957429165249     -2.47785713401075      0.29042673950638
  C   4.20982231375882     -3.24877384668958     -0.07288559974187
  N   4.24788864019363     -4.39764331856403     -0.59092552565606
  C   5.45039020734791     -2.47809825263988      0.40595277594260
  C   6.27510780984797     -3.37045370056303      1.36140964414948
  C   7.27654625711023     -4.02273857933096      0.38328175738557
  N   7.55032124185037     -2.93476489560274     -0.57365487963697
  C   6.59594243628186     -2.00670275690090     -0.49174130267945
  N   6.62795471358041     -0.73122176747183     -0.77093190985839
  C   5.51073919999246     -0.23350915727915     -0.12146027932453
  N   4.93022063907691      0.95071134410423     -0.39939544046204
  C   3.55506599371524      1.20898933844913     -0.09525312582894
  N   3.02426032368010      2.35751799837723     -0.20467736373090
  C   4.86541435319325     -1.13864328975416      0.69010238547109
  H   2.17149545156995     -2.70138001413033     -0.06886674704670
  H   3.32129616551249     -4.77856751176029     -0.77563279272328
  H   5.66701901499981     -4.10045683279206      1.89034991312748
  H   6.80469640439394     -2.74234018375194      2.07944051486138
  H   6.82381621046543     -4.87276871947137     -0.12483302484126
  H   8.20096821586555     -4.33412896194419      0.86579217520320
  H   8.48616087323857     -2.68677123314636     -0.85113745763795
  H   5.39534369546447      1.58744490049180     -1.02915053123350
  H   3.69659290968790      3.06809615735555     -0.48309199412062
