22
Coordinates from ORCA-job 13905optt
  Br  0.77721160704436      0.51575407270475     -0.86494018016021
  C   2.48835496176782     -0.07607951435292     -0.36081974503726
  C   2.81036287599427     -1.38326423302859     -0.30976920842079
  N   2.27446606315053     -2.63815084546272     -0.52469431588615
  C   3.23926741404674     -3.67001735529570     -0.26612747885061
  N   3.08800750044341     -4.91927411869810     -0.37021947782869
  C   4.45772915235927     -2.93424506172237      0.14982462748427
  C   4.13697656300445     -1.65449929866701      0.09902920849847
  C   5.22435759886815     -0.79393600455342      0.47460364696829
  N   6.27075249570355     -1.49125363776494      0.77890424357827
  C   5.89570832544477     -2.88691359309381      0.60505338883757
  N   6.71969761073205     -3.81220008002930      0.82510824440270
  C   4.85379292337502      0.60556738201538      0.40621870129984
  C   3.53980599230698      0.88916139307358     -0.00039953582550
  S   3.28645824979265      2.57823599832153     -0.03534960147041
  C   4.88810530764151      2.90853754716321      0.48026031478070
  C   5.60920471239170      1.77490536056858      0.67711869899361
  H   1.33711516029453     -2.82709640985696     -0.83869580462920
  H   2.15306215921983     -5.18005917273518     -0.67811770691931
  H   6.28256136084113     -4.71780175796660      0.64992658142968
  H   5.20568863841296      3.93058768164850      0.60727065865281
  H   6.63931332716428      1.75304164773212      1.00081474010192
