20
Coordinates from ORCA-job 13914optt
  Br  1.19350669358058     -0.16657030153847     -0.04861319007558
  C   3.05936740367672     -0.02267792345166     -0.04839426536642
  C   3.67613061427754      1.18909342246351     -0.04700520852300
  N   3.10326600107746      2.42702405230472     -0.04556274935171
  C   3.89277220774092      3.57999479960169     -0.04440213596795
  N   5.16468315531496      3.58208807573334     -0.04445531320018
  C   5.80480116204122      2.35456890090738     -0.04579044007268
  C   5.09464313846171      1.17822802996218     -0.04706784635553
  N   5.70983495257446     -0.02683023337903     -0.04846121491122
  N   5.01952168783921     -1.22186071148930     -0.04970909283434
  N   3.77333771527874     -1.19320225914641     -0.04964411525910
  C   7.16397179311882     -0.12765785364932     -0.04869500826205
  N   7.76794642666516     -1.23053872086419     -0.05004546017180
  N   7.83785811631770      1.08422812629027     -0.04747439199791
  C   7.22466153181818      2.21616011690709     -0.04612673056761
  C   3.14788882818864      4.81305189796058     -0.04318077942831
  N   2.50130397511738      5.75931318505495     -0.04264915189351
  H   2.09468583255798      2.50273336629095     -0.04555213321634
  H   7.12350744871641     -2.01588395365906     -0.05088977681443
  H   7.82831131563616      3.12073798370077     -0.04528099573032
