24
Coordinates from ORCA-job 13918optt
  Br  1.09274503033868      0.01964294776743     -0.55926958932615
  C   2.95063180816203     -0.10479528770835     -0.29093017079434
  C   3.54259009110190     -1.21649867394684      0.20585204277279
  N   2.79426227971669     -2.34666060605984      0.61757281842096
  C   2.84851539597379     -3.59105612767463     -0.00887596548195
  N   1.87727545820555     -4.39749468763084     -0.14702952131632
  C   4.18374123789496     -4.01441356119926     -0.45779248454431
  C   5.40807157875011     -3.54958544276388     -0.05451280163664
  C   5.65087297954389     -2.41063655238542      0.88857255436501
  C   4.97770832664960     -1.16592308598826      0.37622920649956
  C   5.67605243268947     -0.06139780891025      0.04361035523576
  C   5.04012217199743      1.13584586498394     -0.47895584373500
  N   5.55933888669026      2.24405087491626     -0.83724698799613
  N   3.65287465839037      1.01580011593165     -0.59194382473841
  N   6.45321618067577     -4.21425784063758     -0.62271214814446
  N   6.09497769429891     -5.14405100572745     -1.42404627490050
  S   4.44937966180263     -5.28506436359468     -1.53729199533405
  H   1.86687714190907     -2.11973493252807      0.94975970836071
  H   0.99501460133206     -4.00506420724299      0.17762755286560
  H   6.72330402808792     -2.25683034163147      0.98521806488145
  H   5.24430894283157     -2.65684252506422      1.87350957582549
  H   6.75206696225234     -0.03925234940112      0.15519270982945
  H   6.56663037051992      2.22927743134528     -0.71675253155200
  H   3.17642208018504      1.82794216515061     -0.95778444955652
