19
Coordinates from ORCA-job 13913optt
  Br  1.54381537566377     -0.61009296381057      0.22801568939488
  C   3.33991063461538     -0.11623792201794     -0.04402501491013
  C   3.76463827691491      1.18726804064711      0.00592066846188
  N   5.14587034298953      1.43558647732537     -0.13664794495035
  C   5.66162927895684      2.67281487372635     -0.48220948764662
  N   4.96667666821153      3.74112896758884     -0.57616192254363
  C   3.64216298247420      3.59280473465081     -0.27150285195913
  C   2.99416836831449      2.41013227975414      0.03102912998698
  N   1.65813989705372      2.52889512186195      0.28885751876892
  C   1.29429291068309      3.76396937143577      0.18993895918102
  S   2.52714966117793      4.89432314145738     -0.23410398724742
  S   6.22702932984915      0.21171110897136      0.33647239940816
  O   6.07582419597197      0.06136969205532      1.74155468374456
  O   7.49761570742774      0.52574092637197     -0.22978582682010
  C   5.40451766853961     -1.08894956078144     -0.48920656540674
  N   4.13274793814028     -1.12943668926598     -0.47510287285160
  H   6.72948756549330      2.67997326549115     -0.65931041620374
  H   0.28107351918439      4.09882713045626      0.36154743548674
  H   6.01824967833810     -1.85282799591788     -0.95227959389368
