24
Coordinates from ORCA-job 13917optt
  Br  3.27816828858340     -0.41374778845397     -3.50272656807057
  C   2.60610059355007     -0.68325918329406     -1.76663752354400
  C   1.98325986877532      0.31960341242227     -1.11000086016890
  N   1.92550767930178      1.61665103764490     -1.69118543517042
  C   1.96408220004711      2.57309159294373     -0.71023725137912
  N   1.20441627052010      3.57625727208416     -0.60479768310046
  C   1.05607881625978      3.88713177004517      0.80062607181469
  C   -0.33042572544022      3.86017314364881      1.32089624558173
  C   0.59194273760271      2.70322394061772      1.63639333550479
  S   0.06402118476761      1.14248814081769      0.92095057344541
  O   -0.76647824427801      1.38194522084818     -0.22501700682283
  O   -0.43165119359118      0.41045505023872      2.05166436010283
  C   1.41975800394078      0.08194203538347      0.22346809053867
  C   1.61421299471405     -1.03351198857908      0.94927405990057
  C   2.36876120524525     -2.21022984953273      0.52507364277811
  O   2.59650157333839     -3.16351856759733      1.21803608938321
  S   2.89242130814174     -2.27692602299891     -1.18554355217010
  H   1.19696451393849      1.75686827311765     -2.38350859853724
  H   2.62796097873196      2.26782197507068      0.10507548995852
  H   1.76767444358536      4.56302802708913      1.26231475236988
  H   -1.10342246570342      3.66600148734325      0.58914111685773
  H   -0.60058570896409      4.49592446165866      2.15133547754748
  H   0.92457023013562      2.54756369906110      2.65235192985444
  H   1.13916044679735     -1.13897713957922      1.91705324332558
