23
Coordinates from ORCA-job 13925optt
  Br  1.24508982471837     -0.22754589002646     -0.34356587540844
  C   3.11204550129077     -0.14612951197064     -0.12758356900412
  C   3.86293375808722     -1.28776345328296     -0.15868481912293
  N   3.31420714572144     -2.55252861297856     -0.34621468432502
  C   4.09706715781599     -3.57397326347446     -0.35472760569725
  N   5.45064905087637     -3.58841415287648     -0.19395915806428
  C   6.09661177799491     -2.37629272411180      0.00948795985819
  C   7.38604327110243     -1.97317395416589      0.21967903177185
  C   8.68030385546710     -2.72738746784132      0.26618760718893
  C   9.70744764158537     -2.01545201263846      1.02495096449209
  C   10.53337417216596     -1.39666134344472      1.63115429343259
  N   7.34196468557356     -0.58803150394699      0.33835717166622
  C   6.06788517781481     -0.13622574350023      0.21786361555084
  S   5.44776118270813      1.46851008438475      0.31002578384471
  C   3.64320212985039      1.19792659169224      0.06059499515002
  O   3.00879498698334      2.21606352025797      0.07676962239334
  C   5.27020606039960     -1.22939982965621      0.00814772620484
  H   3.65740197152644     -4.55503684113116     -0.50564062661545
  H   5.94329800898424     -4.46447349515205     -0.22780205620290
  H   9.06264487871377     -2.91024907136270     -0.74344134052888
  H   8.51521413432511     -3.70654329746479      0.72269402182690
  H   11.27784983179424     -0.86568037658999      2.17580248596147
  H   8.15400379450030     -0.03253765071907      0.55990445562727
