26
Coordinates from ORCA-job 13923optt
  Br  0.84282602233943      0.12540766211763     -0.07417984899657
  C   2.72775539563811      0.06260736439691     -0.16971477085090
  C   3.39180739092639      1.26913992433547     -0.27229191451769
  N   2.99814241957204      2.60276420665756     -0.16855721560955
  C   4.10267591825986      3.42193174350094      0.18616485953955
  N   4.09231202481453      4.60675424772174      0.61137011846638
  C   5.35684719878295      2.59491606180056     -0.11208124823840
  C   6.48953826480673      2.27896546152640      0.89496026846999
  C   6.87013563285928      0.79104805182960      0.57297272901462
  C   5.53883613729055      0.19943527846875      0.13468774432607
  C   4.89223185282646     -1.03007413771840      0.23977496078251
  C   3.50610160170278     -1.10186264455591      0.02762883650795
  C   2.87161999854564     -2.45328365130632      0.03956500160843
  O   1.84068289514617     -2.70799858043428     -0.52809114676633
  C   3.57757118101437     -3.50998802236916      0.76988190047756
  C   4.11842295143968     -4.40166453777665      1.35949638605037
  C   4.76792368859146      1.25018635934979     -0.25904321590544
  H   2.04897053888335      2.86005526286336      0.05690391281626
  H   3.15082348668484      4.98573557915785      0.70161537450794
  H   5.77292564587051      2.97349234675457     -1.05221389294988
  H   6.09321059314550      2.33856890811571      1.90970458485812
  H   7.33674398123112      2.95691996688577      0.81910539844018
  H   7.30167280874035      0.27972797517877      1.43200908590924
  H   7.60273964321103      0.75261508292997     -0.23770377701167
  H   5.41910958082692     -1.93461533292047      0.51330928088847
  H   4.59037314684988     -5.19978457651016      1.88272658818280
