30
Coordinates from ORCA-job 13924optt
  Br  0.79513607311102     -0.18875437786640      0.30891837734943
  C   2.64204893101386     -0.07829372224543      0.54001701913971
  C   3.49193903415551     -1.01951376770749      0.05269076587669
  N   3.24317335689134     -2.18341793681690     -0.64539813576175
  C   4.41717013205750     -2.71532837073314     -0.82394125369873
  N   5.47653379693289     -2.01214575648232     -0.33601959870709
  C   6.89523916702771     -2.37093922679432     -0.26037713813622
  C   7.16706334752145     -3.76686701788672     -0.82448088161400
  C   7.14135534516543     -3.84425531152986     -2.35367694328658
  C   8.04363247552917     -2.78541472573294     -2.98078502304563
  C   7.65770092661617     -1.39695945002714     -2.48094661047913
  C   7.76709625409622     -1.32271659707754     -0.96185268403707
  C   4.91040096270500     -0.89311080737655      0.27042785689602
  C   5.39522815574973      0.13283358636285      0.98628878895346
  O   4.55145590091374      1.05563589246198      1.46508280302452
  C   3.16478907176543      1.05620003336174      1.27830823062577
  O   2.55352758144436      1.97174860776370      1.74344962261666
  H   4.56499227565807     -3.66235160349871     -1.31971158319174
  H   7.14272708780797     -2.37609650195178      0.80636578913045
  H   6.48359474779453     -4.49177812520978     -0.37675612551173
  H   8.16883102781168     -4.04205426650401     -0.48445669375405
  H   6.12777439412849     -3.69993418625265     -2.73555106157646
  H   7.44958896681613     -4.84447603916123     -2.66181357065313
  H   7.97692630069147     -2.83436858684029     -4.06848650303201
  H   9.08659829191492     -2.98893419594443     -2.71556543953648
  H   6.63058585527915     -1.17067936944699     -2.78530826790588
  H   8.29440584135232     -0.63388334233556     -2.93055353272746
  H   7.51088743476923     -0.32298266892735     -0.61089379196365
  H   8.80246870492462     -1.50934703146813     -0.66148994936479
  H   6.42512855835480      0.32318486586742      1.24851553437087
