27
Coordinates from ORCA-job 13929optt
  Br  1.91881051870041     -0.07095315510806      1.93073866825903
  C   3.38597295232457     -0.10270515921261      0.77033818550899
  C   4.01868684639155     -1.23695161218655      0.38542335226247
  N   3.60909101766156     -2.46717641502642      0.90804611605911
  C   4.39985387720925     -3.45507512931056      0.75173185813411
  N   5.55824480450628     -3.42683991783668      0.02155640654139
  C   5.62185035304955     -2.44581700221448     -1.05964980041371
  C   6.99493992238365     -2.47172880441214     -1.71294410572506
  C   8.03826961716234     -1.65070883025838     -0.95258441933483
  C   8.06167374762590     -0.23972177957659     -1.47359741218555
  N   9.07016596446074      0.38353274099709     -1.92616176351340
  N   6.83724086155149      0.40809558691419     -1.50323549039978
  C   5.69320679642157      0.10175699678667     -0.78636483392272
  C   4.97147099655297      1.32324902759616     -0.39313032448370
  O   5.32609541602025      2.44179104580576     -0.72387001117145
  N   3.83527481730144      1.11647272422881      0.34804809137165
  C   5.16688210047053     -1.11894959012368     -0.48783911538700
  H   4.17397088047966     -4.39459353159708      1.24792336261525
  H   5.97337751956772     -4.32339641685014     -0.18101534841721
  H   4.87280119148886     -2.71757191677747     -1.81849476459587
  H   6.91110182766098     -2.09776010241710     -2.73414929762874
  H   7.31106273916278     -3.51449797772698     -1.79204108787010
  H   9.03503573612973     -2.07131173861522     -1.07001553212938
  H   7.80225426335147     -1.65181326380071      0.11588842356105
  H   9.90480542265671     -0.19178620223829     -1.87683905681977
  H   6.90318998435668      1.39725868342792     -1.72596304351545
  H   3.34066982535128      1.95320173953255      0.62620094320072
