21
Coordinates from ORCA-job 13937optt
  Br  4.52255853607826      0.02859604062573      2.49026305534425
  C   3.64037011650160      0.34357516702391      0.87143196994434
  C   2.57807160466074      1.14265566454612      0.74307421521652
  N   1.97702698462989      1.72279529126879      1.87093822432951
  C   1.83960189469802      3.08637544992997      2.09465030443064
  N   1.40356124567610      3.94694602535537      1.27467430099715
  C   0.94827089748608      3.52268255951449      0.04578952410552
  C   1.09036606198435      2.39019303979142     -0.74746830444078
  C   0.25353736866559      2.62392239693874     -1.86535500203965
  N   -0.35136359148310      3.79291020233204     -1.76036914439022
  N   0.08468831659752      4.31556328634154     -0.62159338946277
  N   1.98564521096520      1.31563560251794     -0.52245082325891
  C   2.36256810867893      0.51907524191563     -1.58517389917062
  O   1.87389326955973      0.56944876768352     -2.67808468341162
  C   3.51649411447246     -0.46237908540305     -1.34376048764143
  O   3.89008045800939     -1.21758990764629     -2.17035054171794
  O   4.15665220157561     -0.39376295368641     -0.14108182769107
  H   2.21335668155070      1.21235529736460      2.70960028103772
  H   2.08382024388899      3.39876259130902      3.10587731862209
  H   0.08702212404378      1.99581009402575     -2.71914352872054
  H   -0.24722184823986      5.20942922825115     -0.29746756208220
