22
Coordinates from ORCA-job 13934optt
  Br  3.40552758110738      8.27984837540860     -0.29672100706597
  C   4.29613920787814      6.64220729812720     -0.19399506492185
  C   3.66072390779914      5.44455612227104     -0.15371115862394
  N   2.27601678018125      5.48948826159818     -0.14935333939658
  C   1.38496245742067      4.59700602706851     -0.12985394941615
  N   1.51237720933823      3.21594664891337     -0.12107151194933
  C   2.67474197037424      2.54745914715304     -0.13401861592445
  C   3.96678782926417      2.93090207200772     -0.13317888268179
  C   4.70896555816261      1.64349636406443     -0.16228710898922
  N   4.00513284982710      0.57027335451143     -0.17817069136606
  C   2.65768417881613      1.02539862466829     -0.16009540875893
  O   1.66526663186270      0.36484327018133     -0.16612526200762
  C   4.53483013312982      4.26244460732454     -0.11624778482148
  C   5.87129713298455      4.43937252879020     -0.07501758109596
  C   6.48915300547079      5.75179450429587     -0.07538468004918
  N   7.70798676419797      6.06137514553932     -0.00781367758279
  O   5.61704951719218      6.81889586126175     -0.17503701215810
  H   0.34494695437034      4.91153502296929     -0.12022807723399
  H   0.67382155721547      2.64797185200459     -0.11914766084565
  H   5.79174971276282      1.58030218412432     -0.17414348450002
  H   6.55243335039763      3.60161786864294     -0.03911117179240
  H   8.28640571024660      5.22926485907398      0.05971313118144
