21
Coordinates from ORCA-job 13931optt
  Br  4.10121022872879     -0.56705647565943      3.05678412606578
  C   3.69381907697314     -0.08423615950036      1.28127576811628
  C   2.70480538233365      0.79668865302025      1.00241182808417
  N   1.99006231776377      1.36450422752828      2.09149289020393
  C   0.86260459512537      1.96653683975723      1.61733454263122
  N   0.60928464531689      3.22418082972941      1.69595100090813
  C   0.18066233809543      3.56498503318908      0.45348822333975
  C   0.68905760435329      3.02494533302313     -0.72979359542958
  C   0.06595262894634      3.80263681379335     -1.77390432724687
  C   -0.71405229156931      4.71139702777799     -1.16172238966051
  O   -0.64777094709052      4.58117159682330      0.20178399032957
  N   1.64138470717879      2.07557820988500     -0.96899641595035
  C   2.43264916907410      1.21646060469154     -0.42292210340422
  C   3.22406463994611      0.49437827875433     -1.43924263147722
  N   4.17752520298146     -0.34256075157722     -1.30895465882454
  S   4.73769215567025     -0.84726793938016      0.15199254013193
  H   2.55341286219188      1.95252724740846      2.69923171558438
  H   0.29080061671103      1.31302962126479      0.95909309701681
  H   0.21190784892412      3.68125596981581     -2.83353961315299
  H   -1.35858972434884      5.49439449957628     -1.51859876064641
  H   2.95451694269425      0.76345054007892     -2.45716522661927
