22
Coordinates from ORCA-job 13939optt
  Br  1.61583246445710     -1.75905828188858      0.88494107362077
  C   2.95722677349082     -0.56600502943383      0.31799436727985
  C   2.85915000068840      0.75924395754469      0.55045121558502
  N   1.82387848177049      1.29521098366749      1.37386612624978
  C   0.79379335826676      2.02423715950659      0.68821890268747
  N   -0.38232826687830      1.61838040990861      0.51907588026314
  C   1.24368337346075      3.32998715577251      0.18019923991982
  C   2.51660914717060      3.72873559973329     -0.14282540686200
  C   2.31042908236677      5.07833374257612     -0.56311196834070
  N   1.06464436440897      5.42540137311972     -0.48113023187737
  O   0.38892313696404      4.32047996806338     -0.01636253542337
  C   3.72671392181872      2.95839868205995     -0.23944710556759
  C   3.88286191842361      1.63273759739030     -0.00193519854230
  C   5.12846961388591      0.99910367177680     -0.50201281860111
  O   6.14044657764457      1.59777157480569     -0.78665855517996
  C   5.02493093807443     -0.47625577686218     -0.68970310076829
  N   4.01930596817292     -1.17374295332895     -0.33139832673691
  H   2.24864806592555      1.89638782582820      2.07533543942494
  H   -0.48825465218118      0.69564869537262      0.94610278107016
  H   3.03743014268853      5.78962985635927     -0.92420085805164
  H   4.59035113259163      3.46526572130820     -0.65900965650686
  H   5.87725445678886     -0.97089193327992     -1.14738926364285
