26
Coordinates from ORCA-job 13932optt
  Br  1.33310315040378     -0.33549106851882     -0.30415672496041
  C   3.15012497316342      0.12946738381635     -0.38600707996777
  C   3.54295140171262      1.41645728827177     -0.54500833169538
  N   2.86029426703571      2.62199467216547     -0.42306413784370
  C   3.72137925020517      3.63446065079449      0.06897341468535
  N   3.42216701829092      4.73342126698958      0.60749002264562
  C   5.15289667540098      3.16840015467450     -0.20012215040524
  C   6.16980337825798      3.01875077782160      0.96278040123938
  C   7.38800993470159      3.90662410344329      0.91075485816585
  C   8.22348607124662      3.77200098739977     -0.33795412233117
  O   7.94688972544599      3.07262074795444     -1.27045993248730
  O   6.61967586833643      1.60623354768912      0.93233280461281
  C   5.70836641563619      0.94831998774603      0.20130300231834
  N   5.41220656089057     -0.35438191265349      0.37232406101589
  C   4.15305000584359     -0.89159742100718     -0.06507481617450
  N   3.89581559376400     -2.13519194629960     -0.05083661189338
  C   4.92091292325483      1.74367088233303     -0.53962563528096
  H   1.87391355041921      2.62740754794212     -0.20404918012591
  H   2.41731592009180      4.88040047734699      0.68740621307916
  H   5.56236809275041      3.76983367356566     -1.01388369476941
  H   5.66528007186420      3.14738842458803      1.92318000695788
  H   8.04032890896395      3.71358323115365      1.76769081418287
  H   7.07381429679565      4.95234424018005      1.00003674087900
  H   9.14702502745006      4.38185111070615     -0.34533783182972
  H   5.99654802995079     -0.94024363995315      0.94846459367566
  H   4.68427288812348     -2.69532516814988      0.26284331630707
