23
Coordinates from ORCA-job 13947optt
  Br  1.30826441373317     -1.62101418026111      0.99714103684454
  C   2.77832190422083     -0.66972439008287      0.30668890214883
  C   2.91949126746580      0.65550876718842      0.54063982335159
  N   1.99957387549843      1.32393208381899      1.39981779305277
  C   1.03762727844570      2.17268157737468      0.71969520668961
  N   -0.19443904933088      1.91475401649329      0.66798849668829
  C   1.62265563564941      3.36624860151657      0.13067246949873
  C   2.96038698188437      3.56169726418588     -0.03296374087910
  N   4.07223154730623      2.76100316271191      0.16749415631006
  C   4.05122316437051      1.37614105390193     -0.02041461619738
  C   5.10316589552449      0.80046485974534     -0.66087655968155
  C   5.24654243363872     -0.59661031373977     -0.96580713872559
  O   6.18466188065549     -1.11010747620410     -1.52046114809842
  S   3.85725665920745     -1.67538742366546     -0.57125219167217
  O   3.21400691809007      4.77663595558772     -0.53644189619427
  C   1.99883736309492      5.39709437019141     -0.70647146852607
  C   1.00194950314234      4.57897376229712     -0.33082389732416
  H   2.51768494243946      1.88608097880732      2.06978479794503
  H   -0.38505059083790      1.04855877581041      1.17099731207223
  H   4.92801818798284      3.20944001266634     -0.13017960161574
  H   5.91407549914787      1.41793424825754     -1.03018337483647
  H   2.04368367065012      6.39945174668269     -1.09109476311517
  H   -0.05516938197948      4.78024254671574     -0.34894959773560
