23
Coordinates from ORCA-job 13941optt
  Br  1.36964511171349     -0.59306450310294     -0.78140117288373
  C   3.14478935919287     -0.22647224028775     -0.33138194665605
  C   3.69609528705895      1.02652882204097     -0.27182635917892
  N   3.22075616592139      2.26454688181629     -0.47790760603096
  C   4.30305958132011      3.04001007767252     -0.24443494992290
  N   4.36865403087848      4.40507048584887     -0.31515611686219
  C   3.35902740006374      5.16772944468700     -0.58679773043137
  C   3.60590431680522      6.59844794785739     -0.61760295598748
  C   2.62556937860202      7.46954616491777     -0.87175801101742
  O   1.35129418048990      7.09966940903600     -1.12009370120278
  C   1.07633736637180      5.78194381528288     -1.11084172466497
  C   1.97442697631064      4.81740700989229     -0.86937412476295
  N   5.45428602315246      2.37595747350372      0.09851446527058
  C   5.08827063573902      1.10995549927448      0.08730549349414
  C   5.79321770209647     -0.08090764825465      0.35450717016692
  N   5.21570615218150     -1.25300097618374      0.28550312460237
  N   3.93071675468684     -1.28469088918608     -0.05032431926534
  H   4.60866510917141      6.95091679524119     -0.42535037104506
  H   2.74345509348106      8.54230539265420     -0.90720857395291
  H   0.03336605611232      5.59722317965265     -1.32421821275705
  H   1.66472620791506      3.78595736690620     -0.88298841378098
  H   6.83912060494098     -0.08514389854972      0.62999198025164
  H   3.53491050579424     -2.21293561071958     -0.08815594338261
