25
Coordinates from ORCA-job 13954optt
  Br  1.10742098216723      0.35963651278098     -1.15765794932310
  C   2.87633787235744      0.23553915221288     -0.55084512041433
  C   3.53834370780995     -0.95469433521973     -0.50171773256638
  N   2.94454960174644     -2.17965015625859     -0.85544346161250
  C   2.24894612875537     -2.95264588951466      0.12825347364528
  N   1.19019228190376     -2.64148814723151      0.71913954513996
  C   2.97856902104234     -4.25460395952343      0.53671365581976
  C   3.35543609110700     -4.14740149401127      2.01741975868093
  N   4.47539821356720     -3.18397974654582      1.93071351838156
  C   4.87415620620374     -3.25055722986918      0.74024315408713
  C   5.67711456009601     -2.20827014470638      0.02286435603839
  N   4.86729816260114     -0.97934392960158     -0.12281640943226
  N   5.55022113616012      0.12819606367945      0.17304295192835
  C   4.95121794987471      1.26574314327454      0.14434114982136
  C   3.54344792992805      1.47917431098184     -0.20093128343313
  O   3.03420614544644      2.58161993445575     -0.21546534674691
  O   4.27553665655278     -4.19303161131046     -0.07081519697319
  H   3.58484996366949     -2.76296644837785     -1.37767722645493
  H   0.79856346880708     -1.76153402135963      0.38742051089172
  H   2.45850626463739     -5.15544485784729      0.22496138698473
  H   3.69944032402150     -5.09746978115793      2.43138473497774
  H   2.55144050966413     -3.74089137929235      2.62313788545709
  H   5.99880258495999     -2.57587673570477     -0.95249319790818
  H   6.54281547109830     -1.90703888904235      0.60322371483362
  H   5.54818876582235      2.13297963918934      0.39800312817726
