25
Coordinates from ORCA-job 13956optt
  Br  1.14801622046310     -0.04476106918018     -0.31770659642152
  C   3.02125756012162     -0.05654600369648     -0.07171232425208
  C   3.73387277439617     -1.25532830777615     -0.11785866531581
  N   3.13036740071021     -2.46591706791629     -0.34656839163721
  C   3.75862483698168     -3.70461257962885     -0.27356188647405
  N   3.24084089152660     -4.79963963822069     -0.62896527042596
  C   5.15323301517663     -3.70592386846949      0.33444828366202
  C   5.93482593510880     -2.42839502968929      0.00346649630548
  N   6.39099040018503     -2.71949171497176     -1.36118051242568
  C   6.66094612713535     -4.06277358082647     -1.54965229388523
  N   7.29648275815492     -4.67602434788293     -2.44947013042461
  C   5.98911768122277     -4.77330507262503     -0.37376900419747
  O   6.16107370818363     -5.89968827633419     -0.04145392476418
  C   5.11509217148973     -1.17847610360771      0.07966240902217
  C   5.67965947886786      0.05853362367504      0.33307502154047
  N   5.00119947559850      1.20176854073236      0.36987416934207
  C   3.69265363680623      1.13251597375064      0.16325300590977
  H   2.15191629348020     -2.45657643909016     -0.59882764762655
  H   2.29671632633977     -4.69246358500385     -0.99795223845686
  H   5.07652183308207     -3.90273628790551      1.40291328941630
  H   6.78380688362116     -2.33633251325754      0.69001138256356
  H   6.92433739785476     -2.02262788690472     -1.85858124472558
  H   7.69503062727416     -4.04593426737433     -3.14516210395885
  H   6.74871177467137      0.12608447696405      0.51505081765455
  H   3.13470479154761      2.06165102523955      0.18966735957527
