28
Coordinates from ORCA-job 13952optt
  Br  1.11942422469590     -0.18974468933004      0.32796983048038
  C   3.01776606995146     -0.09781942150684      0.15674912430109
  C   3.65664972139601      1.12224424141222      0.39359871123999
  N   2.97447433908400      2.27819449302165      0.73332378669557
  C   3.49673429384774      3.55779639964373      0.65392865240414
  N   2.85740089583519      4.62023680360701      0.92061195715744
  C   4.92296832079555      3.64190445522059      0.15828982454704
  C   5.64318728744750      4.95884563262562      0.48140494439372
  N   6.59833288549838      5.18792026341266     -0.60976615027439
  C   5.92963574654002      4.72920506409035     -1.81937109477211
  C   4.92282936959550      3.66634248513995     -1.38496139231146
  O   4.25063128068287      2.97791411338370     -2.09594548692664
  C   5.74243555856070      2.42328196033505      0.61897459564369
  C   5.04680674974358      1.13550297344922      0.29795501394501
  C   5.69892566886212     -0.03170155557032     -0.06130600142442
  C   4.95755146049153     -1.17990228963832     -0.28640986614559
  N   3.63240409134141     -1.20448708298053     -0.16572398519165
  H   1.97620870507303      2.19408437995296      0.86339869630063
  H   1.89793846896613      4.43400254747994      1.20807331395130
  H   6.15414437222753      4.93240601502410      1.44303238818793
  H   4.91327851054675      5.76692278019653      0.50064080625094
  H   7.44345030571387      4.65263998810177     -0.45617562534952
  H   6.61767308219773      4.34140029475525     -2.56882016625619
  H   5.36049117343775      5.54407928860992     -2.27852035166643
  H   5.87829876034399      2.50032423214361      1.70336673753062
  H   6.73696518713157      2.43864800040861      0.16861306059252
  H   6.77699832790202     -0.04733494475504     -0.15833085327336
  H   5.43239514209010     -2.11090642823336     -0.56860047003023
