25
Coordinates from ORCA-job 13957optt
  Br  1.00829071460986      0.34164298656188      0.11007615112028
  C   2.86668051144136      0.17253425510450     -0.11348326808274
  C   3.60979528403181      1.32352983259201     -0.28344702095160
  N   3.27467232908787      2.66271306432917     -0.24699546603552
  C   4.43013765166730      3.46822540985203     -0.19213988825119
  N   4.53592219157000      4.69654244494824      0.06147636467993
  C   5.60021530912609      2.55527459868874     -0.54200174666509
  C   6.84202518230270      2.53663781473494      0.33652171986693
  N   7.62045457619913      1.35885257308424     -0.05513323284002
  C   7.11268943673989      0.06244917993719     -0.13784687917199
  N   7.78798692397112     -1.00976971595192     -0.16193586939788
  C   5.62075895888078      0.01752336379865     -0.24236863069523
  N   4.92098536376238     -1.10447454750677     -0.06823986795909
  C   3.59282119903780     -1.03369284969073     -0.04606909837377
  C   2.95921421379701     -2.38455492041384      0.10511413693183
  O   1.78308963922083     -2.60981106928187      0.07098079737951
  C   4.98191420678795      1.21077607625243     -0.43558115925406
  H   2.35245808277353      2.98827789451449     -0.00078955829414
  H   3.64109193032074      5.14468649755585      0.25066084218944
  H   5.89503148263628      2.76990746878608     -1.57451783799026
  H   6.54434589098949      2.50711050247352      1.39045074135384
  H   7.45385837120954      3.42235926525268      0.18030990618248
  H   8.60505663875799      1.40118246759613      0.15514903094484
  H   8.78744890234882     -0.83331253739069     -0.06380648965057
  H   3.71705500872966     -3.17461005582695      0.24161632296407
