22
Coordinates from ORCA-job 13955optt
  Br  5.38972722653324      0.88996195724742     -1.82449558887357
  C   4.28321117930358      1.23480291368042     -0.31676394876432
  C   2.89437137743651      1.29175507889894     -0.48311241333113
  N   2.33525647480812      1.08473763462186     -1.73241002092457
  C   1.02538080116287      1.06469855688161     -2.15549669129721
  N   -0.05472520564998      1.26456271230648     -1.52919819767558
  C   -0.17816421030552      1.56496822611808     -0.20332794451332
  C   -1.36041473205804      1.80738719678696      0.45080297993200
  N   -1.13891068823523      2.08024668647796      1.78841892102764
  C   0.13945828398070      2.00615479753709      1.94945998272945
  N   0.80619708317272      1.69553696013293      0.77677726903163
  C   2.19974924079948      1.57089449540412      0.70798364145725
  N   2.83217823681838      1.74065708274590      1.85663404309293
  C   4.14909538247713      1.64949013303666      1.87458604177468
  N   4.91145496119102      1.40402718620269      0.81946127173573
  C   -2.65777129723046      1.79359910126369     -0.12175519603661
  C   -3.75842867046314      1.78490458101269     -0.59511970560047
  H   3.01179770465120      0.88777081708094     -2.45514427132950
  H   0.95947991678838      0.83742220977045     -3.21556970220393
  H   0.68160464041887      2.15893989216836      2.86578658219192
  H   4.64463894957526      1.78800454197213      2.82683039793179
  H   -4.73618665517507      1.77747723865260     -1.01334745035481
