22
Coordinates from ORCA-job 13966optt
  Br  1.00489091865909     -0.14022939408392     -0.07133115962338
  C   2.84991038984642     -0.04937207511398      0.10294310059312
  C   3.64715321153371     -1.10552369182462      0.07658806315994
  N   3.47531285773254     -2.45289574713535     -0.06072454244180
  C   4.68519095728306     -3.15122489096886     -0.02096226951819
  N   4.72567439012148     -4.40396602305541     -0.13729927427788
  C   5.82095324298052     -5.24843223392846     -0.12205649257117
  C   7.18628382190629     -5.06709594695467      0.05215569838573
  N   7.72815679883166     -6.29314531160156     -0.03797501443436
  N   6.83742931607158     -7.26781237068031     -0.25715010403532
  C   5.67884949757181     -6.64603517574235     -0.30839624773803
  C   5.74365149054707     -2.07807386802171      0.16811466348245
  O   6.94066769269900     -2.17271171261601      0.25997976144617
  N   5.02840230376802     -0.90476794575719      0.21433210706313
  C   5.46792279717238      0.39919025741529      0.37140020135191
  N   4.71098682113229      1.41553986592164      0.39868648174782
  O   3.33374205371662      1.23532114142960      0.26244283840344
  H   2.58584655684251     -2.90912490159698     -0.17929677367029
  H   7.77244005904670     -4.18427719126656      0.22675693305081
  H   8.70160317348362     -6.53140086174182      0.04251561102300
  H   4.76273407790025     -7.18886645421023     -0.47667804745975
  H   6.53319757115335      0.55090453153348      0.47795446606266
