22
Coordinates from ORCA-job 13964optt
  Br  1.00818735288994      0.72890891137138     -0.28268083983252
  C   2.87099925292124      0.54857833349559     -0.15897036002207
  C   3.71331638560441      1.59358650474036      0.00705000902634
  N   5.08507575245192      1.38436844176168      0.06153797419056
  C   5.81282658422480      2.62039876456707      0.16729474122702
  N   7.05088524891143      2.79688137299570      0.24449261646237
  C   4.78455438553189      3.68090689535472      0.12275855822166
  C   5.07305279149763      4.96160353465830     -0.16824776496948
  N   4.16999953091931      5.88195692953957     -0.63931009905303
  C   2.97989495226512      6.02376176041986     -0.26112518933332
  S   2.16889747109467      5.11406361362548      1.05737225267787
  N   2.33377319089525      3.51182562842336      0.51600076734507
  C   3.47685627284056      3.04514912302514      0.20170845371503
  C   5.69860648420043      0.12819328997071     -0.01638204499574
  O   6.90674141757334      0.00315561593968      0.05107892804403
  C   4.76103622718817     -0.96545229457079     -0.19033784111981
  C   3.42958910955252     -0.76272834850906     -0.26171007079036
  H   7.55566590844679      1.91160478514604      0.24059714024116
  H   6.11375848071502      5.26389853953247     -0.20715536359072
  H   2.33399094987937      6.71129915660256     -0.80222107016850
  H   5.19708848085363     -1.95107318799038     -0.26698862728750
  H   2.75220376954254     -1.59588737009947     -0.39776216998807
