23
Coordinates from ORCA-job 13963optt
  Br  1.05487142856228      0.12228401724126     -0.01342187792190
  C   2.92020354327755      0.14703135393557      0.02864363680776
  C   3.64629800911922      1.29009250669783      0.05753861640919
  N   3.26152722479204      2.62474558043596      0.07304486038261
  C   4.35841626297689      3.28646897663212      0.09400309604821
  N   5.50742157111023      2.48109817884886      0.09933524878895
  C   6.80471987477106      2.94016917359966      0.04816516839168
  C   7.97702681732132      2.37752151557436     -0.25772734444865
  N   8.92149715637365      3.40087848615844     -0.11591277603508
  C   8.32052108762820      4.56584497760180      0.25742306541941
  O   8.77294708320689      5.64855671030932      0.46630725657733
  O   6.97228790072576      4.25729798444284      0.36517398203754
  C   5.07626786785464      1.16579461300102      0.07762341386478
  C   5.73682810689930     -0.02004073627644      0.08126652878062
  C   4.95516399911990     -1.23848264352920      0.06356667218714
  N   5.34127248254242     -2.45765660726488      0.07353722649622
  N   3.55899755024920     -1.04178002891293      0.02660851239380
  H   4.45703459598088      4.36068715078767      0.11368933640790
  H   8.22828463900601      1.38743927329250     -0.58320294571178
  H   9.91453408674823      3.32934233808987     -0.24703880889149
  H   6.81034481610769     -0.11027043101264      0.12379619354637
  H   6.35307080307539     -2.52023404995126      0.09825068306245
  H   3.02246309255111     -1.89878833970177      0.00833025540693
