21
Coordinates from ORCA-job 13962optt
  Br  4.43372987693130      0.22903990782311     -2.38709036688156
  C   3.24401757995309      0.08436345197910     -0.84458949322906
  C   2.49457551470306      1.30099580014015     -0.53491256228312
  N   2.78754693275841      2.50433453124577     -1.23122095880763
  C   1.71049628281884      2.79709093641322     -2.11561036232502
  N   0.59175533581114      3.28576510746639     -1.74399768450642
  C   0.30809359320802      3.33223627740517     -0.41285664886489
  C   0.68277101271610      2.45567629697655      0.58758126326638
  N   -0.13226382889399      2.72740158023109      1.67576321773383
  C   -0.99393618825510      3.77348612753552      1.41180193829946
  O   -1.81788215554488      4.27171847184613      2.13418940267281
  N   -0.68240247316696      4.12889289724258      0.10051892009033
  C   1.53272157615667      1.31811705635568      0.45589279107343
  N   1.28373872662658      0.33423530966870      1.38421475839329
  C   1.66062195612445     -0.76932173181368      1.71476250311122
  O   1.88011993735882     -1.80035985921812      2.17735279095455
  O   3.17290849451033     -0.95268071769336     -0.26668933813169
  H   2.91119971043067      3.27142882329071     -0.57233767198604
  H   1.87587723668003      2.58465862821568     -3.16677901195761
  H   -0.13535430915690      2.22140961118725      2.54565612957337
  H   -1.19233481176969      4.82751149370235     -0.41464961619566
