27
Coordinates from ORCA-job 13971optt
  Br  1.35940813982161     -0.22830628166013     -1.67450950507692
  C   2.62307659859052      0.42822834636348     -0.45735088830479
  C   3.47414489006402      1.42807488707846     -0.80117023211965
  N   3.15614057335702      2.38636755863969     -1.75343025753065
  C   2.03635152665282      3.18492729488582     -1.31713315495298
  N   1.31190304874139      2.72183851833415     -0.42680704457651
  C   0.19590894469545      3.12972035893758      0.35348872371058
  C   -1.00973474298924      2.27548488668296     -0.04320824087150
  O   -0.74746402161801      0.99218968816256      0.48006035215795
  C   0.06527660229923      1.08173423564168      1.64543291171991
  C   0.46570028994538      2.57201388057171      1.76614584906598
  C   1.16222029583798     -0.02173192125047      1.61372729175398
  C   2.48647223815911      0.29951667132246      0.96964121525375
  N   3.46186277350694      0.61731238958088      1.76511329590367
  C   4.64104121267907      1.05155323923034      1.22486347379499
  O   5.73461269068928      0.98548845942772      1.67888606926198
  O   4.47696604585170      1.76768608151727      0.00944342859081
  H   3.94160480664325      2.92988044571317     -2.08588093360560
  H   1.96638060984437      4.14310632977627     -1.83889675365176
  H   -0.02489453847015      4.20175770324379      0.33475345160554
  H   -1.92295348372464      2.69910377007628      0.39124121168732
  H   -1.12733612940754      2.18484238208440     -1.12262321513236
  H   -0.55747291880682      0.81378150892547      2.50397570645310
  H   1.50341753416605      2.71066671611087      2.06550961829093
  H   -0.17798530542297      3.06861585125501      2.49264900151808
  H   0.70159070010504     -0.88391812419491      1.12812565552088
  H   1.39476161878913     -0.28693487645654      2.64395296953327
