25
Coordinates from ORCA-job 13979optt
  Br  1.04905457250686      0.11557376328899      0.11904747150946
  C   2.92161525438046      0.04714946086124      0.04157095817263
  C   3.61878162535470      1.19332152217911      0.10944267504134
  N   3.19926290460390      2.49988143642501      0.26087345373963
  C   4.25669367412306      3.38500592316492      0.36999217773012
  N   4.28379660225843      4.64125103395374      0.45952954578521
  C   5.52540578579394      2.53941964229818      0.35645423560883
  C   6.51291406669469      3.02099405315550     -0.68883398685432
  O   7.73337506171088      2.28147612470911     -0.68015545435958
  C   7.67029908526965      0.95196258563574     -0.93371428283550
  N   8.22387931249740      0.36005116319499     -1.88011189549224
  O   7.04622316558259      0.21536892376845      0.05316377316223
  C   5.69658281416443      0.05423160125321     -0.01732529983857
  C   5.08038980946310     -1.13166886008055     -0.10272248465900
  C   3.61515535783751     -1.23919376997107     -0.08065778254013
  N   2.94453517477689     -2.32400339283895     -0.15823338086499
  N   4.99087749059247      1.22376328299775      0.05662369791774
  H   2.22236767790399      2.74633907658980      0.28264149461271
  H   3.35814793441774      5.06386703468335      0.45649956555242
  H   5.99643851010336      2.55696708896658      1.34441849314880
  H   6.78119015242934      4.05177119875567     -0.47174653285027
  H   6.05729071119718      2.96244405461087     -1.68183278476624
  H   8.68351492189553      1.02858706271273     -2.49456237042062
  H   5.68067400510467     -2.02486777027763     -0.19570677313290
  H   3.56353432933715     -3.12769224003672     -0.23765451336676
