22
Coordinates from ORCA-job 13981optt
  Br  1.05249247228884      0.09829525075942     -0.11956677277756
  C   2.91730929097089      0.03301188943150      0.04703286680859
  C   3.59107875109347     -1.13692903839088      0.04145544703438
  N   3.29262117033845     -2.45488167586901     -0.05481794624881
  C   4.48749343184456     -3.19391370186098      0.00137770474995
  N   4.47525201902160     -4.46182265110982     -0.07036462467464
  C   5.63354723416899     -5.20674279763507     -0.01836937321217
  C   6.92559193609076     -4.89140882249263      0.13373608985373
  O   7.80183023180621     -5.94439817134131      0.13640868103166
  C   7.19343987047284     -7.16073180022238     -0.01702987493385
  N   7.78908379535130     -8.26496989482634     -0.04232032047981
  S   5.45345042861102     -6.95841868396420     -0.17308222305113
  N   5.56193652863081     -2.31267062049796      0.13743752732971
  C   5.03473343251443     -1.13784121433074      0.15914711871969
  O   5.71479264273224     -0.00605285903392      0.27233743053863
  C   5.02612087149137      1.16916734656868      0.28325343387235
  C   3.69095820160150      1.23421281170187      0.17825430083386
  H   2.38196486955899     -2.87203877722026     -0.15357970740389
  H   7.37104730442972     -3.92074216901511      0.25564344840906
  H   8.79325288691023     -8.13863415475286      0.06662062633896
  H   5.68550178126718      2.01539020430409      0.38338706153021
  H   3.20550084880456      2.19811952979793      0.19303910573110
