24
Coordinates from ORCA-job 13982optt
  Br  1.31120115703409      0.14901134433309     -0.60211696426483
  C   3.12292398607558     -0.10703553274274     -0.19692930174897
  C   3.69941523867980     -1.31663295607814     -0.19121804248105
  N   3.03337423356823     -2.49796392399413     -0.53610301726361
  C   3.55409512107191     -3.76045690675949     -0.38804678350172
  N   3.06532705812589     -4.85648781234120     -0.79401972352729
  C   4.83323947573396     -3.78710754680548      0.40479322718711
  C   5.80013814412326     -4.91021206085494      0.04147791104232
  O   7.09449860955391     -4.31044574469755      0.17760829489960
  C   7.00722438145785     -2.96694648916365      0.12244171628271
  O   7.94001289042319     -2.22689564405160      0.07632847600858
  N   5.66224554213797     -2.62646478039515      0.13100611039353
  C   5.12449135826101     -1.35289572816982      0.10661346852096
  C   5.80963116913075     -0.21062017577845      0.30381125903362
  C   5.14250574614907      1.07553111776345      0.25122381332003
  N   5.61923040099891      2.23229982708939      0.39474266549708
  O   3.76756165479619      1.03671186316050      0.03462886153278
  H   2.13833764886792     -2.40088717634940     -0.99363440296411
  H   2.18297593251020     -4.74096662153755     -1.28941970584149
  H   4.56836593529005     -3.81304546648557      1.46886093976885
  H   5.74094046063583     -5.76324333218770      0.70881037607690
  H   5.65328276631054     -5.23297850958524     -0.98829566951208
  H   6.86965494471302     -0.22614638844517      0.50006795334911
  H   6.62032614435080      2.18587864407655      0.55736853819195
