24
Coordinates from ORCA-job 13980optt
  Br  1.15418204370808      0.23775162639974      0.23286873220087
  C   3.02125493334824      0.05985312200274      0.06906994414565
  C   3.79492391236676      1.16303022128183      0.12891989857396
  N   3.36756938538578      2.46462647228974      0.27624024927714
  C   4.39824078244171      3.39776742487212      0.24999068146639
  N   4.34693751665948      4.65717157769844      0.22906029353315
  C   5.69861247334797      2.61224634738607      0.25908337502964
  C   6.70262728709426      3.07616417896368     -0.77276641391572
  O   7.91972006584573      2.33417583794090     -0.63677879196502
  C   7.99442508710869      1.07087405231306     -1.10660988173723
  N   8.73611222449383      0.68280020537940     -2.03147170869103
  O   7.32251735824908      0.10315987639294     -0.38967745645209
  C   5.97268745253997      0.12755967838139     -0.23809979347085
  S   5.30552859644381     -1.46824948100261     -0.42308945845393
  C   3.54656399810816     -1.28369011946585     -0.10929868446292
  N   2.80589737664016     -2.31095593984783     -0.09893872742792
  C   5.23761376906261      1.20283967067397      0.04221385362197
  H   2.38789753478413      2.70417903451346      0.30733989298377
  H   3.39512303642112      5.01843639331954      0.23220649859391
  H   6.15522451014171      2.72419833394932      1.24820365262704
  H   6.96967051706996      4.11603801873771     -0.60452148419315
  H   6.30797794517190      2.96200843718113     -1.78581590602627
  H   9.23671095817526      1.47497480677212     -2.42746488119193
  H   3.31398123539149     -3.17995977613301     -0.24466388406546
