26
Coordinates from ORCA-job 13985optt
  Br  1.15938544469249     -0.17789116819099      0.05790191222431
  C   3.05800178363484     -0.07161729524927      0.12974211171720
  C   3.64162036192362      1.19501625522207      0.18064268002797
  N   3.02082681499772      2.43890878914943      0.16256682021395
  C   3.79822504645635      3.52155712940014     -0.26411420289847
  N   5.06054134553926      3.61609101356802     -0.18791761638862
  C   5.70595229599412      2.52321000659138      0.52589101156578
  C   7.23512779188185      2.42898670746657      0.38828534763959
  O   7.92619708072007      3.41127844925437      0.32267902224568
  N   7.79452349838417      1.15924499413896      0.52372137492148
  C   7.17727560432948     -0.05712182146604      0.00900269689075
  C   7.35752056768282     -1.40877064484837      0.73638270427961
  C   6.09657845127093     -2.22270830606992      0.30793281979283
  C   5.05353956536270     -1.13598292576545      0.15027884535987
  N   3.72969783790524     -1.21197591463419      0.17763651234466
  C   5.70853569667534      0.07670043211872      0.07405255043986
  C   5.02787219013212      1.23779561159258      0.22487252417908
  H   2.02900834777538      2.46365835788656     -0.02251756943049
  H   3.22795257073621      4.33142272016248     -0.70855943716426
  H   5.57283861483847      2.71989435824601      1.60204910550708
  H   8.80289642086847      1.21349490121046      0.45711756111264
  H   7.47196588080874     -0.19798172094632     -1.04085922035390
  H   7.32835557966003     -1.23034410887377      1.81308898630228
  H   8.28993400324172     -1.91348433238487      0.48844653886418
  H   5.80876151505898     -2.97412421391546      1.04067951165597
  H   6.26686568942884     -2.73525727366312     -0.64300259104903
