24
Coordinates from ORCA-job 13991optt
  Br  1.23012299661192     -0.00981289732923     -0.14532281042068
  C   3.11412068481206      0.01463513722376     -0.06570572652379
  C   3.79890608647698      1.19362206142540     -0.08950237249896
  N   3.45048455862985      2.52753904038341     -0.15193663837444
  C   4.59100524951183      3.36361573161375     -0.12278166807175
  N   4.65935629509734      4.62035600246240     -0.15723639723292
  C   5.74881077407796      2.40715740894407     -0.03198223366989
  N   7.03123456821938      2.63914394793644      0.04870888546390
  C   7.80379682054441      1.52631497249042      0.14732553030253
  C   7.34963289655864      0.22014593698521      0.16252388251967
  C   5.96272356101958     -0.02924769145959      0.06270326928489
  C   5.20110481932773      1.12502646371130     -0.02771014525892
  C   5.22225649665106     -1.25220229520591      0.06187990132331
  N   5.88778475797954     -2.49498498020500      0.14531828882219
  C   6.81874225462750     -2.92522192923007     -0.75706057809043
  O   7.33639017922496     -4.01079742582761     -0.72460071096124
  C   3.84928404512611     -1.19919117932060     -0.00303938117869
  H   2.50386109510419      2.86597947577237     -0.19361813394269
  H   3.74324320278144      5.06283955924697     -0.21391960743066
  H   8.86743691847126      1.71506509284119      0.22481369633425
  H   8.06340828362801     -0.58706078922096      0.26082097606500
  H   5.57685544944326     -3.18261235527938      0.81731292284611
  H   7.04414242883139     -2.16730199655780     -1.52529563987000
  H   3.29429557724354     -2.12900729140054     -0.01369530943679
