28
Coordinates from ORCA-job 13996optt
  Br  2.94454455610614      0.85633018045233      3.43048705331332
  C   3.35096828842166      0.21965109536637      1.70122251795472
  C   2.84173270167124     -0.95350495859411      1.26897798458628
  N   2.00513923093486     -1.81259983330652      1.99719853539507
  C   0.77809708686051     -1.55479675730623      1.88165967222317
  N   -0.19030405964349     -2.64637941467436      1.92476113384334
  C   0.16387830480669     -3.23555245784176      0.69285982776208
  N   0.41245446493083     -2.47021807456605     -0.30326260403907
  C   1.45342625164296     -3.16759912435415     -1.04677798585660
  C   1.15910034381014     -4.65509788132898     -0.76061211240482
  N   0.63982440045672     -4.52895939828973      0.60567231456529
  C   2.82232589467240     -2.81633371306958     -0.38081883752201
  N   3.09110225051542     -1.41520931128880     -0.02533959287844
  C   3.76322757727177     -0.61637703505452     -0.97477615075463
  N   3.90777956458162     -0.90743794709526     -2.21296560236591
  C   4.34948630332037      0.60420435896853     -0.44757176250741
  C   4.15960674694408      1.00175434683568      0.82162602231624
  H   0.37118691013601     -0.60618086525149      1.54004369572956
  H   -0.00280157407367     -3.27887705092178      2.69535791104147
  H   1.43640173465983     -2.92016635111832     -2.10627013823975
  H   2.04895975859728     -5.28402719202936     -0.78309946757978
  H   0.40963188629828     -5.04791910546296     -1.45180740086995
  H   0.14315285354968     -5.28691538791464      1.04685293899761
  H   3.63548764726515     -3.13935696822463     -1.03365962230731
  H   2.88817014650586     -3.39093995926866      0.54038130838332
  H   3.42726457408164     -1.75667800215268     -2.48882537203378
  H   4.93920127949262      1.17715083966407     -1.14775004491434
  H   4.59395487618335      1.92203596782764      1.18943577816234
