22
Coordinates from ORCA-job 13998optt
  Br  1.31884006543360      0.16178296922317     -0.10050766316050
  C   3.14739586618522     -0.09802424428920      0.08645706549142
  C   3.76595982829695     -1.28523153772489      0.04339931391726
  N   3.40761620740784     -2.58563771017191     -0.12267242966573
  C   4.56593738747035     -3.37168853090707     -0.05812768296993
  N   4.53632767745107     -4.62788137628237     -0.17391925455147
  C   5.73332395666196     -5.31967137142889     -0.08489424169270
  N   6.18440564098127     -5.90420866733578      0.93740830705089
  C   7.43032867287582     -6.55046826185262      0.52768949887961
  C   7.58028790675696     -6.19779577705138     -0.96928278242187
  O   6.41672616945072     -5.40787832623666     -1.25543082859297
  N   5.67599436399542     -2.52416581787730      0.15166867213190
  C   5.19341854755685     -1.33117261963739      0.20579062391115
  C   5.83089378900312     -0.05302712019272      0.39473732843399
  Br  7.68481350267952      0.03727655329839      0.60818942820176
  N   5.19241182917600      1.05997616928332      0.42762230969443
  O   3.83550434629966      1.04580922929452      0.27545625717783
  H   2.48395104422727     -2.96051667999768     -0.25958839744496
  H   7.36396554251282     -7.62620739045584      0.69597487771147
  H   8.25874948833908     -6.17203690584996      1.12738081986427
  H   7.57093895073517     -7.07023167115374     -1.62122055539552
  H   8.46120921650320     -5.59500091265395     -1.18513066657035
