20
Coordinates from ORCA-job 14001optt
  Br  1.44243554570855      0.22249988663575     -0.07645881155632
  C   3.28210157338945     -0.11784858211170     -0.11895681883526
  C   3.76598921156456     -1.39750802022219      0.02723307717661
  N   2.86071991534871     -2.39818384020084      0.28949706207184
  C   3.32047355014167     -3.58843155339223      0.43742996062569
  N   4.59303756247328     -3.99947778943617      0.15119133953069
  C   5.48806549147775     -3.10277793546795     -0.09472035117096
  N   6.65594155939988     -3.57876536635988     -0.66770059667631
  C   7.82826796316665     -3.12535652560191     -0.52121708547592
  N   8.25990915725855     -2.06882405493109      0.23039352354488
  C   7.54151263267256     -0.95798132831476      0.66529013809045
  O   8.04687402686835     -0.20479023323317      1.45010733027168
  C   6.16916601379076     -0.70051720360492      0.12332435366473
  C   5.94232499885499      0.71661873594089     -0.12888000481033
  O   6.77156850797873      1.57098013354656     -0.27626656514452
  S   4.23468529095082      1.26656064032495     -0.32140477701185
  C   5.18771024121684     -1.66279565098567      0.02362633644123
  H   2.63174238926860     -4.37032179922930      0.73515870788511
  H   8.63526109343971     -3.65141399116772     -1.02629042147747
  H   9.23921327502949     -2.02766552218865      0.48064360285604
