21
Coordinates from ORCA-job 14002optt
  Br  1.04657344365367      0.05926156264630     -0.07200793028810
  C   2.92846973144304      0.00530553245911     -0.07116265378216
  C   3.64079400337034      1.15603880374459     -0.07174958393438
  N   3.06931660439918      2.41032193936830     -0.07281171337366
  C   3.84780379141810      3.52796602474423     -0.07317186291328
  N   5.12024153194031      3.54955457331897     -0.07276092143376
  C   5.79344516335358      2.33131569079488     -0.07190929188186
  N   7.05549470285527      2.31727453014128     -0.07167155650139
  C   7.75586418157559      1.08496620101058     -0.07088364699336
  N   9.02115512117393      1.05128938177067     -0.07090303849824
  N   7.03126002388973     -0.10717902019234     -0.07006137525411
  C   5.75451562530098     -0.07228191543777     -0.07029229092769
  C   4.96369234231214     -1.28045221492664     -0.06953137923758
  C   3.61898144076593     -1.24280115814605     -0.06998324215574
  N   5.02136896997937      1.13833669639804     -0.07132502608040
  C   3.10486101439711      4.77350485330493     -0.07407579030993
  N   2.46588930609023      5.72329229119028     -0.07487489210801
  H   2.06064769092520      2.47526438585427     -0.07314344962966
  H   9.37421714306330      2.00596808098638     -0.07155161299454
  H   5.52185659628476     -2.20471585765719     -0.06865936225573
  H   3.03755157180818     -2.15523038137282     -0.06946937944642
