24
Coordinates from ORCA-job 14004optt
  Br  12.04364259055320     -4.37008091181960      0.71514518453651
  C   10.50973774995541     -3.63253209101834     -0.10704836669412
  C   9.37416522881457     -4.41850954090427     -0.32520551863991
  N   9.32638132151355     -5.74088249979475      0.04765109053314
  C   8.24265205908222     -6.58034342540627     -0.16248898829215
  N   8.25865927186641     -7.83892095304932     -0.05209574795568
  C   6.93782652424750     -5.89944353229482     -0.50179549788650
  N   6.19963725637456     -5.52153175606839      0.71739287756093
  C   5.64226968846404     -4.41955166378785      0.44268086676493
  O   5.90139588032278     -3.84355764072623     -0.76291498120381
  C   7.03734588389343     -4.57355361555546     -1.26989307193608
  C   8.29580581234422     -3.80233740141154     -0.96394945661540
  C   8.40808783975698     -2.46484441615341     -1.31137173165702
  N   9.48376626623410     -1.71815897378612     -1.09084721365043
  C   10.51676654276366     -2.30731538695257     -0.49982369862670
  C   4.72595354032344     -3.71484645402415      1.28429144199537
  C   3.95559174408378     -3.11843928852765      1.97669610387571
  H   10.17701933539280     -6.15138760708946      0.40567179310365
  H   9.17428859843551     -8.19710723396126      0.21819146060390
  H   6.33951766788415     -6.63791078150671     -1.03731825679606
  H   6.89129676878402     -4.68546155567852     -2.34253871807454
  H   7.56819290059305     -1.97455575308875     -1.79257947568755
  H   11.39873475945036     -1.70270673198839     -0.32294225431146
  H   3.26926476886615     -2.59302078540612      2.59809215905328
