23
Coordinates from ORCA-job 14006optt
  Br  1.80869856645467     -1.76108541341977      0.61288748437679
  C   3.00120872586390     -0.38879472849439      0.15007118956168
  C   2.74116471131519      0.90711159952271      0.37902368706944
  N   1.56520281436838      1.33842792501026      1.05529677051432
  C   0.64233035499308      2.05066568383704      0.19613300322212
  N   -0.37544381479584      1.53040330378486     -0.32070337600651
  C   1.06538498229536      3.43916226084621     -0.04232314154146
  N   0.24514152381528      4.46413301373476     -0.15378422961117
  N   1.04391215102099      5.51940413706782     -0.33193540910758
  C   2.35067480419845      5.21294406347436     -0.34874494710521
  C   2.42816045999864      3.84649028466184     -0.14640145532065
  N   3.61440507188814      3.14223049267488     -0.21109458451377
  C   3.76193600628109      1.88211764764104     -0.05619249382242
  C   5.13805573172570      1.32920710964679     -0.34716103695563
  N   6.18458570039639      2.03685928804763     -0.35410617414212
  N   5.26585844920863     -0.04104312778471     -0.66039334525889
  C   4.27616153403348     -0.80813198056728     -0.45181464539750
  H   1.84645296504484      1.96131485093760      1.80892174245497
  H   -0.46861569100794      0.56385330244207     -0.00396841505633
  H   0.62649899974721      6.43046718397256     -0.42490063437050
  H   3.12446394286910      5.94493158190128     -0.50652426626144
  H   5.93296692795704      2.99936802013740     -0.11875079168077
  H   4.37579508232817     -1.86103649907497     -0.70353493104739
