20
Coordinates from ORCA-job 14015optt
  Br  1.07970245807243     -0.06832046701172     -0.35553510425856
  C   2.92108493004855     -0.08400576132850     -0.15823337767453
  C   3.66307810175351     -1.18878086453439     -0.07867064425303
  N   3.35405992104058     -2.51920186906720     -0.09889346942056
  C   4.47482948851412     -3.16157530214322      0.01923306920569
  N   4.58970530102219     -4.51277977207867      0.14241555570878
  C   5.48656440773129     -5.14482722208283     -0.47741412259036
  O   5.79669465245184     -6.42277996337188     -0.21140546466093
  C   6.78061266598886     -6.79378430964953     -1.10195451510591
  C   7.04737230109629     -5.76312161210567     -1.88545126592346
  O   6.22806306819525     -4.71836575287524     -1.51721341460973
  C   5.66401748045996     -2.24045085283166      0.16078840883219
  O   6.83261278778956     -2.48266293999891      0.33019159110968
  N   5.05664560402967     -1.00896921550747      0.07078139885348
  C   5.55101844162773      0.26520595008263      0.17905382679987
  N   4.84316426076664      1.31852654042754      0.10823054372035
  O   3.46064554056019      1.16203419898456     -0.10271460117544
  H   7.16564320003109     -7.79305396258364     -1.03030156780497
  H   7.73473450975614     -5.59993626883037     -2.69357846451508
  H   6.61475087906403      0.38384944650620      0.33867161776250
