20
Coordinates from ORCA-job 14019optt
  Br  1.10164170144312      0.00157503615168     -0.00072720495653
  C   2.99576848903580     -0.04638456881459      0.00585174369725
  C   3.70411076287330      1.14964121404603      0.00603813821901
  N   3.05758028073179      2.35281300002023      0.00228632007179
  C   3.71571623503914      3.51404627441208      0.00239104737248
  N   5.01846194607713      3.60891842477363      0.00655796271420
  C   5.72036955751124      2.47301990488817      0.01061739487678
  Br  7.56605032859509      2.70815131616365      0.01747074374403
  C   5.15144478516211      1.19151625352952      0.01016899302356
  C   5.81865256976873     -0.05696888416399      0.01345929662418
  N   7.11558956694148     -0.37477199296367      0.01698032670416
  C   7.08751075594546     -1.72993018670963      0.01878385141533
  N   5.89758067803550     -2.32261816495253      0.01705694153035
  C   5.04595701797291     -1.27154647528545      0.01340368199873
  C   3.66167681502130     -1.26478258703019      0.00986442170701
  C   2.90339184299928      4.70526214755830     -0.00206930811701
  N   2.20958287828598      5.61632301606426     -0.00601612779810
  H   2.04036676801034      2.34362457254113     -0.00061248634955
  H   8.00558619703797     -2.30094911002180      0.02138587758311
  H   3.10596082351228     -2.19393919020684      0.01010838593924
