27
Coordinates from ORCA-job 14014optt
  Br  1.66909291301366      0.43086373466066     -0.21880582041709
  C   3.36789437684369     -0.37754714772318     -0.03091126679590
  C   3.47909560770764     -1.73204371141545      0.28377962300820
  N   2.37839047581858     -2.54024439805904      0.46338732205131
  C   2.43292677851770     -3.88945118406410      0.80959885190646
  N   1.48584851314771     -4.71301352082555      0.67473991866269
  C   3.75209589458687     -4.32009205416551      1.44623699134803
  O   3.94477590518937     -5.70400080436166      1.35779006137243
  C   4.68031888743243     -6.01168288467254      0.16773748861957
  C   5.02045584649137     -4.65745742046096     -0.48675993095607
  C   4.94544156871320     -3.70720008600313      0.71670989296707
  C   4.77162369429008     -2.25601113754430      0.39924934628574
  C   5.84378491133809     -1.40129190762288      0.21011281884743
  N   5.73604484683428     -0.11033258927872     -0.09168233934328
  C   4.51127070300272      0.38334446846268     -0.21171435240166
  C   5.88426930838905     -6.77135979087835      0.51980115618464
  C   6.88282473590717     -7.37371067899226      0.79017570839914
  H   1.47612155288666     -2.15364123756964      0.22407684433343
  H   0.66279495737414     -4.28952534664083      0.24645433850272
  H   3.71727043711758     -4.04323478549117      2.50272401613127
  H   4.04706602747756     -6.62018364328519     -0.48027104278456
  H   4.25754413803154     -4.39220425771090     -1.22100376292730
  H   5.99206178774556     -4.66113695993192     -0.97390295494790
  H   5.83378861819974     -3.85147038990178      1.33494122320865
  H   6.85210865271478     -1.79183856720037      0.31101056579704
  H   4.41978444103290      1.43461736196401     -0.45945236510134
  H   7.76130442019587     -7.92115106128785      1.03597766804928
