22
Coordinates from ORCA-job 14023optt
  Br  1.29634271244758      0.11629321362302      0.48767604860054
  C   3.15773382481559     -0.02081753461855      0.29250054860304
  C   3.84187981221921     -1.16862165851618      0.05557972434466
  N   5.23262975843864     -1.11270190767000     -0.08458849913939
  C   5.91201100638041      0.09774063238099     -0.38569723304399
  N   7.03627205256592      0.19702754061169     -0.95459517741778
  C   5.18603106158754      1.29010627646074      0.07853089540100
  C   3.87567688793800      1.21204743391173      0.39851081255432
  C   5.88864636244977      2.52599073953855      0.13165624942736
  C   6.46532385861634      3.57471356734801      0.18997653529421
  C   5.95871703629634     -2.31294587393691      0.08033446411522
  C   5.32035143045497     -3.47925853588613     -0.00838589119387
  O   3.99649802153556     -3.57533860536679     -0.27709670847403
  C   3.17810103484728     -2.48539696738039     -0.16470357615697
  O   2.00853187669935     -2.64993114242229     -0.28281448662468
  C   7.32721481855090     -2.28737654422765      0.47898962829534
  C   8.47387770278486     -2.30278488340389      0.82497962260629
  H   7.42377389343945     -0.68999348620009     -1.26013212790279
  H   3.33863942434177      2.10032892602515      0.70007839321707
  H   6.98747181139323      4.50059977981529      0.23566486782189
  H   5.79975635445904     -4.43030757537199      0.15724636437393
  H   9.49251925773818     -2.30337339471430      1.13328954529863
