25
Coordinates from ORCA-job 14024optt
  Br  1.46358184115576     -1.92398614909695      0.12508543417593
  C   3.27188565165075     -1.46700462869074     -0.13404365606693
  C   3.89676027690781     -1.79189565459663     -1.31160464853444
  N   5.13382805533122     -1.32249657694444     -1.57819550757564
  C   5.93238573329935     -0.71866585023029     -0.56147619813234
  N   6.97499891825362     -0.04655578832553     -0.77970818675909
  C   5.47181379397972     -1.16362783520723      0.77611876184914
  C   4.12396432395614     -1.23544708686328      0.97886569566215
  C   6.29959027434649     -2.33795563270695      1.12586413956052
  C   5.67222619116173     -3.52979952801906      1.06016624510876
  C   6.17796976675876     -4.69568587042565      0.30402895330347
  N   6.93542234393021     -5.67111017820089      0.53315942101533
  C   5.60907616656337     -4.43985951114412     -1.11270741112549
  O   6.31406658264018     -3.91974236410041     -1.94000437508687
  C   4.16871079818195     -4.74287266422333     -1.38126969185201
  C   3.24632718467628     -3.94830962766870     -1.92162048835201
  O   3.37497720522964     -2.61302262823116     -2.25978079194158
  H   5.62310077315690     -1.78142114354166     -2.34124009796305
  H   7.15728649804364      0.06983097462771     -1.77580092766759
  H   3.74579920813665     -1.54065567949911      1.94931205651255
  H   7.37248800641147     -2.26393126872405      0.98792619765849
  H   4.58709159923990     -3.52723258706323      1.07113750480168
  H   7.26209819305988     -5.65603364610863      1.50053215796363
  H   3.84219571983554     -5.74569276767092     -1.12972013403338
  H   2.25635489409298     -4.31382630734472     -2.16002445252121
