26
Coordinates from ORCA-job 14026optt
  Br  0.54610908831490     -0.24230878660954     -0.70956842568160
  C   1.52753981981940      1.30569777200420     -1.11619204379262
  C   2.54897066700814      1.78976303987553     -0.16133739011971
  N   3.78559176196146      1.95183639284763     -0.72414485987532
  C   3.79993877322952      2.52339150869152     -2.02176396466858
  N   4.91254210430374      2.66166666370544     -2.59580451179420
  C   2.44903756783726      3.04268611310007     -2.50113821097662
  C   1.28533171575933      2.14867483877667     -2.12216040807426
  C   -0.05410225309578      2.32768148593605     -2.72427286132372
  C   -1.05446870277323      3.06614155120070     -2.19912843433201
  N   -1.09136232283064      3.95135901732861     -1.11973903595094
  C   -0.60454188805240      3.69543895799551      0.02656273321133
  N   0.01268507499095      2.49149488793450      0.36731905038636
  C   1.01698820549497      2.82388505684649      1.09427032855071
  C   0.82708979242964      4.19470972813105      1.72992015240950
  N   -0.39854559437478      4.61412525180492      1.04802317330420
  N   2.28635544687838      2.28168860676174      1.01734576505245
  H   4.53487459164539      2.25564097338400     -0.11413526153747
  H   4.80976238039520      3.14545431023631     -3.48400973549253
  H   2.47535060323264      3.14621577066153     -3.58622741239225
  H   2.30783491757750      4.05256980319202     -2.09203683672828
  H   -0.26327373352331      1.83505888577548     -3.66723454574658
  H   -1.96894499107320      3.09404923528253     -2.78360935445943
  H   1.67476938351722      4.84539387822657      1.50426643213249
  H   0.71453189569130      4.12610726575581      2.81329652913713
  H   -0.49206430436363      5.58457779115463      0.78849912876196
