24
Coordinates from ORCA-job 14021optt
  Br  1.76873575675743     -1.48479474236910     -0.73981701570451
  C   3.58226764330130     -0.99796775723289     -0.59820026579803
  C   4.09192161974102     -0.77036411209606      0.64155263195826
  N   5.35105132601163     -0.27002016157402      0.77000184502109
  C   6.25315332787256     -0.19560290778342     -0.31182180414688
  N   7.31489812407753      0.48597418676872     -0.33526138470900
  C   5.87389464258928     -1.12841742800956     -1.38659630667462
  C   4.55210144364884     -1.30127539055416     -1.63010692894194
  Br  3.99107132822006     -2.36932460726423     -3.08143249070583
  C   6.87235585657939     -2.21910452093716     -1.63946008494567
  N   7.31200360507460     -2.71444528378749     -2.70744913608229
  N   7.30304371533118     -2.70528253654995     -0.36963071798108
  C   6.50953306851759     -3.27127820968627      0.44197774441559
  C   5.13648177817755     -3.76441779541658      0.16920778453768
  C   3.99913803607878     -3.54203938858137      0.83261594812218
  N   3.71969858329238     -2.73503301292321      1.94847076324496
  C   3.62692119458306     -1.47615108145855      1.88071670066974
  H   5.74461157866963     -0.18336115154446      1.69668182031900
  H   7.44834665278524      1.03290635062398      0.51412409743073
  H   6.94837897633265     -2.21194704793727     -3.51395591554512
  H   6.90962056763029     -3.48593005729415      1.43508022827554
  H   5.05684931642198     -4.41661560124062     -0.69505169829104
  H   3.10353827139794     -4.05766839937715      0.49679648961169
  H   3.35038358690803     -0.91883934377498      2.77355769591955
