22
Coordinates from ORCA-job 14033optt
  Br  1.41503903325517      0.47693996383887     -1.05145182481729
  C   3.15554503438592      0.08651007923641     -0.46588782189239
  C   3.48683133503219     -1.04407587214640      0.18108147588536
  N   4.81830877580963     -1.21998993251454      0.62303596267912
  C   5.67573213937382     -0.07247869646739      0.81286332753597
  N   6.69490016057157     -0.02089194365478      1.55295166557564
  C   5.32177343779222      1.05027279836537     -0.05438406637590
  C   4.14911953105697      1.11336543532046     -0.69150069241753
  C   5.40396290900800     -2.48299147201248      0.63832783065147
  O   6.40588524351905     -2.74582676578320      1.24450929771137
  C   4.78775580568891     -3.54603000952794     -0.25575522151016
  N   3.59190018878195     -3.97974402600096     -0.20543740673244
  N   2.70675866336330     -3.35807679807081      0.62306533098020
  C   2.45308534864827     -2.00393804673776      0.71094316983358
  O   1.43499410993986     -1.61622804444097      1.21947702782232
  C   5.71828871388939     -4.18645378871655     -1.13124422741827
  C   6.52598686891590     -4.67495035688200     -1.86734699868344
  H   6.83571468604298     -0.86622595585662      2.09712487383154
  H   6.06649051807854      1.83010441703473     -0.12874693052103
  H   3.89278187288807      1.94929994991366     -1.32720023907379
  H   1.88380356930433     -3.91749392407875      0.80166697831351
  H   7.23934205465386     -5.12009701081834     -2.52009151137785
