25
Coordinates from ORCA-job 14034optt
  Br  1.12153344035591     -0.25331018287893     -0.25787162805445
  C   2.99854765548549     -0.14832766174947     -0.34159582270651
  C   3.66679107865667      0.97664086988508     -0.66295241550071
  N   5.06014641543520      0.98759085917427     -0.60809225394618
  C   5.85280137745286     -0.09766692647113     -0.14732312279559
  N   7.12056127900296     -0.12712807218880     -0.08648914663302
  C   5.06772686873362     -1.27395035024770      0.20490308997032
  C   3.73483396803037     -1.31478269014968      0.08071256897659
  C   5.71409995209984      2.16480406916816     -1.07924276448303
  O   5.48882316682216      2.63256132838844     -2.15049059183261
  C   6.58157790936793      2.88797581180677     -0.04241590311580
  O   7.76924869879200      3.03957246326910     -0.19135794091020
  N   5.85259536716721      3.36030494439807      0.99153972781452
  C   4.41747429749903      3.19339901856688      1.22617828814106
  C   3.50167255385132      3.48860175722341      0.02915067116763
  C   3.00116989617205      2.31977270809628     -0.82990557535381
  O   2.05302957988431      2.46469826706338     -1.54525410685188
  H   7.60860024426448      0.71055049379917     -0.39356994636439
  H   5.64175950534292     -2.12572934740110      0.54070476786881
  H   3.17953410847972     -2.20987690697509      0.32565967878909
  H   6.39276172760476      3.85501826112505      1.68668845090011
  H   4.17238163347063      3.90117226455168      2.01474481101819
  H   4.20920078804756      2.19533114854331      1.62319304512118
  H   3.95619347741679      4.22475333967481     -0.63780365169662
  H   2.57993501056412      3.94102453332803      0.39688977047728
