24
Coordinates from ORCA-job 14031optt
  Br  1.33164774736677     -1.67497099272168      0.94414101835587
  C   3.10384422415781     -1.20470552744906      0.50017961572049
  C   4.10271517015881     -2.10157339295293      0.62604136305335
  N   5.41019484552976     -1.72940489922553      0.29709431680948
  C   5.73673023733730     -0.45263647857899     -0.23226479056567
  N   6.89926044274749     -0.09184764470856     -0.61195501786628
  C   4.61691036558187      0.46902914273375     -0.32417141782163
  C   3.37024245028632      0.12129164394068      0.02598194815232
  C   6.53260156249086     -2.65810300223437      0.34253869112217
  N   7.30472623823483     -2.77569624057567      1.31329718849275
  N   6.65006536018445     -3.52887988432741     -0.81337703185037
  C   5.55194922940262     -4.37365083297051     -0.55033166995765
  C   4.33633701734163     -4.35371466199891     -1.09696700565355
  C   3.24015291060209     -4.44598555882538     -0.07541100932174
  O   2.16451057481664     -4.94997726136561     -0.12565272042050
  C   3.73873657583428     -3.52121206708188      1.09780715876750
  O   3.90786817043747     -3.89377966601810      2.21781320830106
  H   7.62853291201677     -0.78751785181869     -0.48022857807796
  H   4.85940629731415      1.45396626014420     -0.69582849300866
  H   2.55120190103811      0.82380878305156     -0.04952196192918
  H   7.04118914106948     -2.14741619219870      2.07259898056664
  H   6.50116382321016     -2.98812055971305     -1.66332950946401
  H   5.68295037169561     -4.88025078628726      0.40261950389028
  H   4.11506243114463     -3.84565232881786     -2.03007378729470
