26
Coordinates from ORCA-job 14043optt
  Br  0.69245841960273      0.85733906035852      1.67186379141816
  C   2.09167252922029      1.39148844355336      0.55299720854448
  C   3.25384714505857      1.94955814511307      1.03663069103815
  N   4.34237278556094      1.91867170750168      0.21271260994745
  C   4.27130447006215      1.52838804895403     -1.16322146183162
  N   5.28852159008000      1.22345436094547     -1.85966439683165
  C   2.93375191332889      1.71742692520549     -1.69079682570225
  C   1.87775602328589      1.69638917548861     -0.84540848819464
  O   0.65309138576855      2.12398033770009     -1.25454108672872
  C   0.04135790811698      3.25148936120221     -0.56496008457783
  C   0.76593842392608      4.62409464130158     -0.70048376957089
  N   0.88048804680470      5.46338340514867      0.53279253271145
  C   1.90715866750543      4.92986115085935      1.33719702984111
  N   3.15140714680682      5.38978834339964      1.30751026733768
  N   3.86142726269302      4.29378656628141      1.64345914348848
  C   3.04415807171391      3.22338351889928      1.81174310597348
  N   1.80277619807771      3.66713047128688      1.77016213554007
  H   5.17391595573100      2.42444222172165      0.47186442896847
  H   6.14932883633010      1.23385019745986     -1.31598168990684
  H   2.82007780370153      1.98564018953479     -2.73052885657616
  H   -0.93689190424193      3.30457793359877     -1.03761020803908
  H   -0.09601808044759      3.01760337700993      0.48607699994646
  H   0.25513669374002      5.23042517680917     -1.44725483942754
  H   1.78234510128594      4.46377504561541     -1.06665248878025
  H   -0.00364733218757      5.52224140789142      1.02354789243915
  H   4.86626493847580      4.35083078715960      1.64554635897288
