23
Coordinates from ORCA-job 14046optt
  Br  1.86664892711188      1.76857209135573      2.03427905988016
  C   3.45328259125426      1.46245323729751      1.03369374714593
  C   3.40422194490224      1.30250897312994     -0.34814017603119
  N   4.52930466704072      1.24358913769718     -1.15389891823115
  C   5.85448667240029      1.40711921798056     -0.57294189930668
  N   6.83627880328301      1.92411682395086     -1.15470342640110
  C   5.64002491058207      0.87891784958138      0.79146965532951
  C   4.78217015333681      1.72375010260739      1.44595726260546
  O   5.28713637578753      2.92185643503175      1.92058322801749
  C   4.92188093113775      4.19950580239824      1.71688047833364
  N   3.95088886492181      4.74642533205967      1.14707168568823
  C   2.86371647678112      4.38470151369384      0.43480561597888
  N   2.90792352410204      3.87182090839656     -0.73130393031220
  C   1.70398500135012      3.55580889948610     -1.33047303378029
  O   0.85786437621005      4.31646802682095     -1.71475843908067
  C   1.49064020943410      2.05846727841910     -1.50404386071985
  N   2.22408594588902      1.14313885235046     -1.04939563798298
  H   4.38287466875167      1.59418299406159     -2.09341922074114
  H   6.61203023435889      2.24943099284995     -2.09504221466794
  H   5.24314872980202     -0.12824192800742      0.73100389945504
  H   5.67273266614831      4.82949543495222      2.18451134823500
  H   1.91715931466660      4.63161327682217      0.91851731722452
  H   0.58151401074760      1.78929874706423     -2.03765254063867
