25
Coordinates from ORCA-job 14054optt
  Br  1.00828370681282      0.01491258156890     -0.04302896318440
  C   2.89339240446857     -0.03701086183836     -0.04877260164921
  C   3.58808759078695     -1.21983355266652     -0.05183265164478
  N   3.09348326893189     -2.51460805987978     -0.05236908261366
  C   4.10561913259966     -3.46556067110336     -0.05656846112584
  N   4.01554494848720     -4.72656235975036     -0.05921914321874
  C   5.42136812067260     -2.70074753143519     -0.05752049528008
  C   5.00135380086308     -1.25396408714691     -0.05484598856248
  C   5.73839650342867     -0.09967982724063     -0.05509533185992
  C   5.05617878918801      1.12969408896964     -0.05272165262159
  C   3.64611985296719      1.13848785775605     -0.04964273783158
  N   3.22264690298662      2.43859629848665     -0.04810336777293
  C   4.33751282804544      3.23928132642903     -0.05023788494256
  O   4.29535596705475      4.60613289623624     -0.04958897643418
  C   3.14987497656982      5.30175993719304     -0.04888850691012
  O   2.04451870307883      4.85131048558810     -0.04845658545674
  C   5.47672776754965      2.49918033937509     -0.05287460319964
  H   2.11121965175038     -2.73521727140238     -0.05125212563566
  H   3.04897203393816     -5.04667605995952     -0.05800555265733
  H   6.00172180309593     -2.97775614264972     -0.93831904664224
  H   6.00426359311988     -2.98013366091442      0.82085867346406
  H   6.82096757898568     -0.12971800512253     -0.05737968789253
  H   2.27195002018454      2.77218084383096     -0.04655538236855
  H   3.39191478423022      6.36873931768277     -0.04875470094607
  H   6.47952527020341      2.88919211799321     -0.05482514301324
