24
Coordinates from ORCA-job 14061optt
  Br  1.09174002576007     -0.24204854851507     -0.15017114065586
  C   2.94816041512035     -0.11485269617144     -0.05026101563620
  C   3.76925568780919     -1.15505314923789      0.11630697233689
  N   3.53859877392019     -2.49483857575069      0.25760207835190
  C   4.75642111230487     -3.19921798355111      0.35892216138244
  N   4.93461872029178     -4.44803255924835      0.48924722079332
  C   5.80355345550084     -2.16979103213464      0.28378836707558
  C   5.21417112563458     -0.96516809069126      0.14659542917662
  C   5.67348474902158      0.39492158345549      0.01983748288519
  C   7.13741613186489      0.71535107160490      0.04521485370799
  N   7.73944009576045      0.36872134959786      1.32414003476664
  C   8.72695690870218     -0.54568435936711      1.42643302056311
  O   9.24998768233652     -1.13637932088152      0.51618424182977
  C   9.14436316764191     -0.77135186373868      2.83209597057045
  N   9.46438336865202     -0.93512977384322      3.91885680105820
  C   4.75132573731511      1.36104489950420     -0.12305229053414
  O   3.41885071474789      1.15680814792757     -0.17179265411329
  H   2.62920582899012     -2.92447161373106      0.24827132025549
  H   4.05809064759694     -4.96437911707418      0.51865806330456
  H   6.85551713814022     -2.40701636879136      0.32282187011816
  H   7.30102843011921      1.77379276830020     -0.16382498766208
  H   7.66818186380921      0.13240550415631     -0.70835978764191
  H   7.35098760656366      0.75404075643812      2.17122054010684
  H   4.98626061239611      2.41132897174293     -0.22573455203971
