26
Coordinates from ORCA-job 14072optt
  Br  1.07472748094634     -0.33237002732561     -0.34185195612796
  C   2.93797504322627     -0.28132402760087     -0.18315128811366
  C   3.69763599224303     -1.40598061746013     -0.11857835981240
  N   3.10644199387324     -2.67119650271064     -0.12712740900778
  C   3.85310057600118     -3.65513485922795      0.19065136942135
  N   5.17993912119006     -3.58357136015518      0.50212109249706
  C   5.97502066320819     -2.44850612712152      0.06946685547494
  C   5.11824452554764     -1.21246000033663      0.00943917993359
  C   5.67114743554679      0.02674866421734      0.05244297861310
  N   7.06155155302217      0.21390923644358      0.15364777138776
  C   7.96571974589334     -0.14308617172700     -0.80541811523424
  N   7.78837776920266     -0.66413709430779     -1.95114312142394
  C   9.39417870516286      0.13268425084494     -0.40915630816192
  O   9.68649027405135      0.60751794440292      0.65186979059362
  C   4.84441683631623      1.23216353755933     -0.00815752340041
  N   5.20898485560237      2.45445530330403      0.02568964861609
  N   3.48688218252412      0.95894448008573     -0.12229371387015
  H   3.41249099304393     -4.64460656666903      0.26783360339751
  H   5.66713502288866     -4.45503019847515      0.62266032871869
  H   6.41755643729823     -2.63415414284434     -0.91764031051840
  H   6.80010193681459     -2.28704605711227      0.76467611395797
  H   7.44220733507134      0.73222747221161      0.93632511976276
  H   6.79925718209684     -0.78706934986655     -2.17027084044645
  H   10.13070049508740     -0.13512861590568     -1.18182531853781
  H   6.21894294056755      2.53665541449693      0.07223669372348
  H   2.88977290357355      1.77149541527993     -0.18944628144279
