23
Coordinates from ORCA-job 14073optt
  Br  1.32847433203158      0.17443836464500     -0.17653249307690
  C   3.17865040238901     -0.08919151708028     -0.14770184140614
  C   3.77435862175040     -1.29155013598832     -0.08856919973391
  N   3.28811755086867     -2.55774093915007     -0.03220218301032
  C   4.34770332652733     -3.49513175969801      0.02856353315219
  N   4.26405275350787     -4.76045226902132      0.09426348238354
  C   5.57018196242048     -2.68981133833208     -0.00170011545695
  C   5.22608634447698     -1.38393888518507     -0.07223845031656
  C   5.91089576820277     -0.11507352638137     -0.13646363770020
  N   5.28519570931815      1.02773194779223     -0.19175016594338
  N   3.97451959450339      1.03896095150130     -0.19270323549715
  C   7.37123438811329     -0.05399023851497     -0.14893985383380
  N   8.14486161479778     -1.05561081919116     -0.09098342872861
  C   9.49149266533852     -0.52003670007266     -0.14005315328004
  C   9.31071327343983      0.98119168865026     -0.24108307523830
  O   10.09565827346592      1.86355533237891     -0.31511115430863
  O   7.94505468828694      1.18958873556355     -0.23641030227344
  H   2.31148147404577     -2.79955731033255     -0.02255981713516
  H   3.30055377013680     -5.08703821286343      0.10185609245065
  H   6.55760050754427     -3.11301845911441      0.03014247453628
  H   3.55018967235379      1.95208442637828     -0.23738583801700
  H   10.04317296143074     -0.89619458466483     -1.00318891018271
  H   10.06075034504968     -0.77721475131899      0.75475127261654
