23
Coordinates from ORCA-job 14081optt
  Br  1.53549631898165      0.05086777095863      0.06114448501421
  C   3.39580415185072      0.08149253627939     -0.15173551648170
  C   4.06282522910021     -1.07454543272245     -0.15972738488191
  N   3.64132641776146     -2.37788982728327     -0.15705249612825
  C   4.74454235067470     -3.25231895450035     -0.15319893644291
  N   4.75018818915571     -4.51822838753897     -0.19320646583452
  C   5.93282552766531     -2.38969948679978     -0.07036956939055
  C   5.51161686464470     -1.11537540285108     -0.06950585727339
  N   6.14407388394351      0.08984839093939      0.08479773443945
  C   5.50948927151812      1.30017212014639      0.08496043035629
  N   6.23108077594851      2.34781730382347      0.25434191885125
  C   5.63964671772655      3.59360347516118      0.19040936910783
  N   6.18237357018992      4.70084967841151      0.46756496325591
  N   4.32264517314587      3.60762056691233     -0.28371784149786
  C   3.53964291964659      2.52799910850769     -0.53845409740117
  O   2.45445646976912      2.58698756965360     -1.04561506944179
  N   4.13204705188941      1.29748692520177     -0.12953896363081
  H   2.68522741194597     -2.65911780585667     -0.29409433634101
  H   3.81174110069354     -4.91027364204324     -0.22949485033681
  H   6.93265980123787     -2.77969728743404      0.01675977859174
  H   7.13940688384782      0.14581357862119      0.24192360838276
  H   7.14266532337514      4.54554577152607      0.76051033614033
  H   3.92421859528758      4.50804143088724     -0.50870123905708
