19
Coordinates from ORCA-job 14080optt
  Br  0.88079152486313     -0.14625308732175     -0.31292778945648
  C   2.75217533332654     -0.09884690947099     -0.12873665995808
  C   3.50016645621619     -1.25799149937681     -0.13440909377524
  N   2.94362754685470     -2.52003824556730     -0.26056203247974
  C   3.70695865206904     -3.62394876496194      0.09601582941999
  N   4.95829643076123     -3.65891901752744      0.23796249838093
  C   5.71002712495461     -2.45115590151491     -0.06378531092335
  C   4.91129602210550     -1.17324252993219      0.00951717540673
  N   5.55147852799539     -0.04521212713095      0.17820009547264
  C   4.82478056132828      1.07150273199234      0.17819682700195
  C   3.43195198292456      1.10703056560926      0.02129830293061
  S   2.93647564337294      2.72987853411203      0.08088854569222
  N   4.55229290954897      3.25916708806453      0.30289158625873
  N   5.38559677239110      2.32762391950215      0.33265929781981
  C   2.92597838630383     -4.82899943561341      0.31849139557773
  N   2.27309411828977     -5.75516128446351      0.48125389845374
  H   1.93713988489836     -2.60509146488733     -0.25922109481531
  H   6.12392321451611     -2.56111131130819     -1.07271494682299
  H   6.55994890727974     -2.37923126020359      0.61298147581612
