22
Coordinates from ORCA-job 14085optt
  Br  1.04262669891057     -0.19486120822954     -0.17132948152163
  C   2.91639353442359     -0.14028320473006     -0.09346697037155
  C   3.65343846922742     -1.31645081969380      0.05586790723785
  N   3.01051373073544     -2.55044255272305      0.17125297761263
  C   3.70979090355022     -3.60277508025242      0.06833914398167
  N   5.09762199331461     -3.62942289119578     -0.08211490596580
  C   5.87777366348396     -2.44028687335596      0.28052721996133
  C   5.04645067564021     -1.20083211177460      0.07944131628820
  N   5.69586709925538     -0.05698675151915     -0.02160536130061
  C   4.96988828479797      1.05376710560245     -0.14721751085792
  C   5.74303783681516      2.32733562168434     -0.24678290439250
  O   5.22553317562787      3.40406682044186     -0.34914384195089
  C   3.58288893836377      1.06739064827495     -0.18922348453801
  C   5.67894502830153     -4.83446214798527     -0.40241768813613
  O   5.08200522259816     -5.84304849795187     -0.65567505719687
  C   7.15712281396899     -4.80687113921502     -0.41359507119237
  N   8.30171539177569     -4.80702300728719     -0.42226628173926
  H   3.24490910987091     -4.58110452081997      0.08228608848581
  H   6.76910695642624     -2.37475004230073     -0.33986782168020
  H   6.19621743876455     -2.50675470463514      1.32574585568988
  H   6.83787371262956      2.19268545535420     -0.21689342003967
  H   3.05927932151813      2.00710990231178     -0.29786070837395
