23
Coordinates from ORCA-job 14097optt
  Br  1.50339586600387      0.17113248159904      0.97796710346684
  C   3.29760541308600      0.01821303907365      0.40387811071058
  C   3.77851467125588     -1.19662842845777      0.07455731824316
  N   3.17104336492436     -2.41790304897161      0.07474243011789
  C   4.04704956358929     -3.42601307997447     -0.36386233293065
  N   3.82305201012052     -4.66670231045196     -0.50378381408178
  C   5.31094443955465     -2.73686690372851     -0.64143855306381
  C   5.14561562203225     -1.42672446373808     -0.38295496877855
  S   6.25193615715694     -0.10689373628086     -0.50875478555691
  C   5.22924541935933      1.23470622091980     -0.01551984181726
  N   4.01097959351074      1.17942836108451      0.34242062584771
  C   5.95077239501727      2.54143529831389     -0.04332952354456
  C   5.19454473141055      3.83349269267502     -0.06302162929284
  N   5.84941277767005      3.38534564453380      1.13033478769954
  C   6.97067814549324      4.04744893920666      1.62389892432174
  O   7.10326578725834      5.23730199134566      1.62858367148711
  H   2.20794880374511     -2.56072495971440      0.33192269580824
  H   2.86982580151362     -4.91913729475362     -0.25204956353267
  H   6.18935987158776     -3.25059670865466     -0.99392571374307
  H   6.90857747223072      2.52956157391989     -0.55488775897819
  H   4.11470959098795      3.77793377679220     -0.04756967244909
  H   5.64653426094813      4.66925701882293     -0.58375542782550
  H   7.70798824154338      3.35493389643889      2.05854791789207
