24
Coordinates from ORCA-job 14090optt
  Br  0.94293448416590      0.22087393009450      0.44849523565206
  C   2.80900318747298      0.11814923774365      0.24272936713825
  C   3.44495880316159     -1.06623558631781      0.27611404133787
  N   2.78202834743224     -2.28340376413783      0.45282455393010
  C   3.43947928223006     -3.45892853231152      0.20946399969528
  N   4.69156541741863     -3.61407667956472      0.11101961602820
  C   5.53132450246619     -2.47016485311531      0.38428154976286
  C   4.89656818441465     -1.11983152352892      0.15475493512793
  N   5.68070685036478     -0.14318877186450     -0.09729683693103
  C   5.25977531425191      1.16527481368475     -0.30032475714333
  N   6.00755205670952      2.10594591128681     -0.68364900749673
  S   3.57484541596943      1.65230369300581      0.03682669718934
  N   2.62228115139220     -4.61556085003978      0.06579627383254
  C   3.31014523293052     -5.87189510258398      0.01358122808170
  N   2.96206007401047     -6.87426309790115     -0.65496198507383
  C   1.24299484081670     -4.62726977763915      0.08458538266319
  O   0.52094835585733     -3.66225828448792      0.12919434437594
  H   1.76700251061491     -2.30052359497773      0.42334865205138
  H   6.43819607947971     -2.52428396097432     -0.21515621432962
  H   5.84960527062219     -2.50262377858700      1.43456247853368
  H   6.95934330432839      1.75829655576765     -0.79816442357077
  H   4.19502035800006     -5.89260455933997      0.63793208806360
  H   2.15907079489903     -6.70166757434099     -1.25915211485735
  H   0.84659018099055     -5.65006384987053      0.07619489593873
