24
Coordinates from ORCA-job 14096optt
  Br  0.98933005962076     -0.16869993944524      0.12431108593547
  C   2.86407820227510     -0.12229247824936      0.07413675155692
  C   3.58365742943062     -1.25337990116426      0.00919081490902
  N   3.27124066935678     -2.56355996336342     -0.06768365180492
  C   4.45093249507759     -3.35464925890004     -0.11210955827458
  N   4.53060295301447     -4.61402640610251     -0.19582717595983
  C   5.56507970728461     -2.40560595495528     -0.04089900979104
  C   5.03689642045567     -1.17318441038481      0.02616905993726
  O   5.64795087999257      0.01446190101911      0.11638086767565
  N   4.90606299388927      1.18467348575739      0.13266700362226
  C   3.62555966235028      1.10926611332035      0.11225375556535
  C   2.89944670768721      2.43244741902375      0.12807616512563
  C   3.76844405251399      3.69145565297361      0.21716885750669
  N   2.97029114992242      4.58111542994674     -0.60461782035310
  C   2.20507121004748      3.87934461506002     -1.49829026935562
  O   1.62645963527087      4.27762506495152     -2.46121258430565
  O   2.18415446824340      2.57226350033828     -1.09990885844517
  H   2.33147547596182     -2.92272884243338     -0.11129320529568
  H   3.61759807978502     -5.06211437060629     -0.23382278127230
  H   6.59888708605682     -2.70255725194062     -0.04317947500932
  H   2.16653590026701      2.41509141404950      0.94055007979074
  H   4.76367421377154      3.52146535197687     -0.19262541109190
  H   3.85390047197394      4.04365845423433      1.24315397908366
  H   3.30567007575073      5.48293037489373     -0.89958861974955
