23
Coordinates from ORCA-job 14098optt
  Br  1.43953206629838     -6.33046112883375      0.10823576395551
  C   2.56432911200710     -4.91257349143479      0.61315361591912
  C   2.46293782359622     -3.69352919164214      0.00074667651871
  N   1.67631535264642     -3.61622038107424     -1.14658134600147
  C   0.99986791865291     -2.62342933259642     -1.53986854420312
  N   0.75756085052050     -1.40746208991835     -0.90383238568709
  C   1.70589434697304     -0.84027345176140     -0.28599877966215
  C   3.08696879696747     -1.31397686480342     -0.01562320814197
  C   3.34169788992976     -2.61294755283064      0.42693362293611
  C   4.42466682705371     -2.90177883976147      1.35753912127956
  C   4.47086463486608     -4.23398190668216      1.90475133148890
  C   3.55666595347566     -5.17506070787180      1.59360427506873
  C   5.34593787534347     -2.02206626200479      1.89189710504062
  C   5.64662439760922     -0.64079335621821      1.62058415850853
  O   6.36928531453586      0.04375303294189      2.32646064410856
  C   5.11875440241354     -0.07346340478769      0.36442801822332
  N   3.98157399776210     -0.32465591882409     -0.15488832414902
  H   0.47682578878255     -2.71912944642436     -2.48797360031742
  H   1.51309879377865      0.14416715396176      0.14445950056763
  H   5.26101581090033     -4.45952505490663      2.60800132238439
  H   3.59645983457599     -6.15676385536099      2.04500081290388
  H   6.01011126688900     -2.43237039557907      2.64552028737101
  H   5.72401094442202      0.71054244641278     -0.08755006811234
