25
Coordinates from ORCA-job 14095optt
  Br  1.02073342583646      0.02444071912191     -0.53437641367977
  C   2.89856258051004      0.08417530291977     -0.35940575070625
  C   3.55236888657364     -1.08153864983364     -0.27112221123892
  N   3.13929937985460     -2.37968731931752     -0.27041219435796
  C   4.24641211725405     -3.25021901037700     -0.18987929467376
  N   4.24715704069230     -4.51570379372397     -0.17389547607410
  C   5.43137259837775     -2.38336828183700     -0.12455023633973
  C   5.00188069015317     -1.11495265199405     -0.16924842896282
  O   5.70577744670608      0.01486795065833     -0.14203396176154
  C   5.08653393100205      1.25822543720631     -0.11063855780100
  C   5.97311414121406      2.23324698337681      0.14890708667057
  C   5.84431454379709      3.68179108384434      0.27892072700840
  N   6.84517979204971      4.29006678712720      0.79916329709503
  C   4.66786686413517      4.37870410467893     -0.23588914962068
  C   3.47071846579402      3.86687209209023     -0.56566182791020
  C   2.98370424796551      2.51843761517291     -0.52535217795958
  C   3.63580662219919      1.34340004366829     -0.33522589082115
  H   2.17952586126622     -2.66925334977067     -0.35687658630970
  H   3.30758429772218     -4.90447431650863     -0.22613399308092
  H   6.43750919216951     -2.75771169681240     -0.05142341858075
  H   6.98539454669116      1.88833082103193      0.32426373249972
  H   6.68475483970091      5.29627398549612      0.82460639657906
  H   4.79062346714747      5.45322649169560     -0.32678482770834
  H   2.72582713517364      4.58575596606117     -0.88862451762079
  H   1.91997788601391      2.43709368602502     -0.70032632464482
