19
Coordinates from ORCA-job 14101optt
  Br  0.90360777911417     -0.96611129007053      0.24478911101093
  C   2.66417017433542     -0.40199239405682      0.16919757424564
  C   3.07034867889051      0.88134511638603      0.11576565834924
  N   2.17721340644344      1.93417503001277      0.14735112462609
  C   2.46273843448417      3.17736102717446      0.08151410557008
  N   3.61698766263907      3.96402781961042     -0.06965315176579
  C   4.82161639292692      3.53885796778565     -0.12346421917046
  C   5.28780062977047      2.17773460654307     -0.05086911790765
  C   4.48578635782134      1.07599034925179      0.04314537892209
  N   5.32822844371631      0.00212769131325      0.05104811673760
  C   6.61875993432511      0.49841509179378     -0.03895886907374
  N   6.61219978800160      1.79114493074514     -0.10298082564659
  C   4.89571018438961     -1.32509118815701      0.12347436191792
  O   5.62390727413621     -2.25742185640667      0.14110640204477
  O   3.54840712192172     -1.45088997167722      0.16845481480507
  C   1.29247973662886      4.04766038904616      0.16885817830196
  N   0.37848679323438      4.73462973942317      0.23809624411209
  H   5.59589676867053      4.29405804562711     -0.24904563814976
  H   7.47165443855012     -0.16002110434459     -0.05082924892950
