24
Coordinates from ORCA-job 14107optt
  Br  1.12730822328830     -0.16566841277959      0.91885761677123
  C   2.91644216095509     -0.15408058287983      0.39349241758131
  C   3.66389206561869     -1.27691639984211      0.26533470134534
  N   3.11653775600566     -2.54307317728086      0.47060380415021
  C   3.83596302382489     -3.53672460562547      0.11760664932452
  N   5.09615972610667     -3.46785686159815     -0.41097367068678
  C   5.92325022249422     -2.29885549069500     -0.11508861305196
  C   6.61817208030048     -2.42967366204243      1.21996871589834
  C   6.11500958115270     -2.16330190584621      2.45997575908367
  C   7.02494668287188     -2.48832742488235      3.50040386609012
  C   8.19653934077015     -2.99665221543087      3.02958470358722
  S   8.20405228470612     -3.07792044168616      1.32343015811903
  C   5.03639548670354     -1.07539989573454     -0.11958935975262
  C   5.52338916212732      0.14993035247861     -0.38951704491785
  C   4.68802360049363      1.32471521448567     -0.27879616914025
  O   4.98553803262795      2.45999876782940     -0.49200403433512
  O   3.38113267661841      1.06973513419910      0.15586884261666
  H   3.42060983129878     -4.53668850678929      0.19819888845121
  H   5.59534104970436     -4.34149840431393     -0.47609405975132
  H   6.66941599004811     -2.19904983992952     -0.90472838816729
  H   5.12928390111584     -1.74661059574113      2.62019929391322
  H   6.81965675056854     -2.34318008445861      4.55077610384205
  H   9.06027717217835     -3.31190389488233      3.59197314807898
  H   6.55466319842021      0.32000293344563     -0.66648332904994
