26
Coordinates from ORCA-job 14109optt
  Br  1.25675976299366      0.08824185772451     -1.31166574236834
  C   2.86745980908796     -0.09684790106461     -0.37127640501830
  C   3.52741467719053     -1.26477174786897     -0.20030189884489
  N   3.02958575934438     -2.41715675407243     -0.81854455829395
  C   3.49305016023493     -3.71857264456071     -0.85594215573443
  N   4.25416401419057     -4.34479871177214     -0.06986720683502
  C   4.72294603418365     -3.68987604330764      1.12775696429053
  C   5.58655145148225     -2.44824080220972      0.88143739346876
  C   6.43485486465748     -2.19716492462652      2.13399333176710
  C   7.15972678636010     -0.87655994478135      2.15264846004325
  N   8.31361534740880     -0.63084703833692      2.61375828325490
  N   6.39530422935817      0.16055331559960      1.66412250662494
  C   5.21499603639206     -0.01951253815602      0.98826849971121
  C   4.49583532974308      1.22483181139098      0.73762362828777
  O   4.87611562755569      2.31148274399121      1.07147568296174
  O   3.31402210920562      1.08858893753864      0.08287866427897
  C   4.76186311977574     -1.22481671916420      0.55538781450253
  H   2.31418848232216     -2.22281075694075     -1.50238524562953
  H   3.07969686527109     -4.25458394971766     -1.70801214962821
  H   5.31538710684829     -4.41317623459889      1.68901526405996
  H   3.87375695237335     -3.40648172919820      1.76430152080731
  H   6.24759658015816     -2.66455971208766      0.03500277644836
  H   7.15441453639959     -3.00389911613264      2.26358008753984
  H   5.76974723211567     -2.20408889390324      3.00561244131797
  H   8.75179400374445     -1.47597522501194      2.96771946476984
  H   6.71315312160246      1.11104272126733      1.80241257821766
