23
Coordinates from ORCA-job 14118optt
  Br  1.11794643305144      0.14468785270638     -0.09167788278260
  C   2.98864058928309      0.00424401921523     -0.01018322375675
  C   3.63421042581141     -1.16048889316102      0.21970756812280
  N   2.91197503282054     -2.31380901645188      0.57867287697555
  C   3.01609433709332     -3.61564681693505      0.11975118713249
  N   2.22333768925137     -4.55854751889778      0.41680950069667
  C   4.19581141739262     -3.92195710436261     -0.77168279747415
  C   5.46818501541233     -3.53465016129113     -0.10713908980217
  C   5.85400150769123     -2.30674605996958      0.36601655207187
  N   7.12219559527972     -2.40565772898906      0.85332985731922
  N   7.52520344471009     -3.61681961472900      0.72164020930086
  N   6.53749252584789     -4.30938149654851      0.13842711795295
  C   5.08602122320135     -1.07750411763959      0.26353920631205
  C   5.70758456004394      0.11859841020127      0.16240636288619
  C   4.97760469224560      1.34867365244493     -0.02032396577738
  O   5.40257034141112      2.45734313663405     -0.11245552860794
  O   3.58595491050183      1.18194921035891     -0.13312473526742
  H   2.06945975991173     -2.12781732718760      1.10350137463889
  H   1.46100052766433     -4.25525358273205      1.02198220901076
  H   4.09632315750025     -3.36011258506168     -1.70558671758120
  H   4.15840203951708     -4.98297792489395     -1.00331851868355
  H   6.66434634466316     -5.29199660202748     -0.04783114984935
  H   6.78463842969449      0.19087026931721      0.19753958716221
