25
Coordinates from ORCA-job 14113optt
  Br  1.02356059400930      0.24317864828268     -0.12565865529758
  C   2.88533424962486      0.03358327144144     -0.02027360117049
  C   3.45413296032509     -1.21308894630995      0.09029370369187
  N   2.67278543720094     -2.33857884176085      0.27218399599168
  C   2.71391908391232     -3.61665666627107     -0.32068173570608
  N   1.79261282687808     -4.46803513793511     -0.17895663285221
  C   3.93641622435046     -3.93528051682015     -1.13231905254230
  C   5.16286066298452     -3.73890383583781     -0.30596080874198
  C   5.49690162696805     -2.53638243012007      0.24780056353203
  N   6.65545024627243     -2.66143094471098      0.94723728031549
  C   7.08387242208100     -3.95609589854869      0.84573004208306
  C   6.17331653403459     -4.65239511194357      0.09392687248004
  N   4.82420862589100     -1.30881471076870      0.14703949830930
  N   5.63319540287114     -0.23466584852432      0.14154293519826
  C   5.11629634803460      0.93843833752243      0.07872915107042
  C   3.68184459885941      1.23398591405445     -0.02470357397242
  O   3.25894515887896      2.37203673278587     -0.11215666402678
  H   1.74412577843776     -2.08688002505226      0.58563958986955
  H   1.02759613506244     -4.13571210546254      0.40752232185933
  H   3.95663385266941     -3.27679289694572     -2.00802929297692
  H   3.84093787170757     -4.95996673539493     -1.47890692918649
  H   7.15155931202146     -1.88927565567630      1.35955840996699
  H   8.00057220964957     -4.27312261161957      1.31114705703470
  H   6.22285519365807     -5.69869761947989     -0.15713002606596
  H   5.80606664361694      1.77355363509563      0.09242555113649
