24
Coordinates from ORCA-job 14127optt
  Br  2.03442914271830      0.84077436546322      3.16472009569798
  C   3.42748294561951      0.53240841814005      1.91263089932016
  C   3.35623893797235     -0.63570687541358      1.09193393932019
  N   2.32516871984719     -1.52580527494083      1.35095349144922
  C   1.78916767331823     -2.36641378835798      0.56193705888343
  N   1.98423504959311     -2.64533274758841     -0.75672765232119
  C   3.05338804409671     -2.10643113619552     -1.57032222967555
  C   4.36405829013136     -2.01102371703140     -0.77882403397527
  C   4.36924957798046     -0.83805860800504      0.15232717508117
  C   5.36371122802091      0.13106176297012      0.11746111396530
  N   6.51092692438834      0.29599923631919     -0.62399962006978
  C   7.09272377578422      1.45465560819939     -0.17981446010082
  N   6.43045873357541      2.04386959778227      0.76798737341578
  C   5.33515133379545      1.23684352612120      0.97861673950170
  N   4.36003798094171      1.43879844454528      1.86344405883183
  C   0.74374384536162     -3.21065654351556      1.13906984859993
  N   -0.06485563493182     -3.91409018708150      1.54308731814011
  H   1.41578800660301     -3.37957384024871     -1.14481200682725
  H   2.79047157644403     -1.12063600194872     -1.95992440753866
  H   3.17392939579333     -2.77821056979785     -2.41947697656471
  H   5.19007625662759     -1.92642872397227     -1.48609395932359
  H   4.50570517924523     -2.94292177566074     -0.22588487542960
  H   6.87810745599319     -0.31021546142407     -1.33605795954971
  H   8.01860556108049      1.81209429164147     -0.60423093083067
