25
Coordinates from ORCA-job 14120optt
  Br  1.03283667963589      0.45227686413100     -0.01344552622538
  C   2.86895807539738      0.12174477788064     -0.27426457921559
  C   3.78644386781270      1.08550585664944      0.07782376561802
  N   3.30368491796850      2.15401516325541      0.79643803440276
  C   3.66567343460502      3.37209390818483      0.84030519841822
  N   4.54249734595889      4.03621808055944      0.06115576521816
  C   5.47498511912319      3.33849233916961     -0.79086813189789
  C   6.13593231545039      2.13033223938498     -0.09607751918591
  C   7.55444254620395      1.90223187668247     -0.65684066462939
  O   8.32319147473500      1.54258877562119      0.49841635322313
  C   7.59053201605863      1.99661582805460      1.53933606647093
  N   6.41581654169268      2.40452810166697      1.33290660691513
  C   5.21487944866681      0.91220543798720     -0.19567064024395
  C   5.72050256132648     -0.28762850317033     -0.53507361438227
  S   4.84525651542362     -1.71851215883000     -0.85942974966462
  C   3.13552565663061     -1.19661739912786     -0.81777730289036
  O   2.31794400813506     -2.00316162128341     -1.17957703511608
  H   3.18506519069427      4.00308680956343      1.58558935488662
  H   4.79633429052321      4.95895031824377      0.37048170133743
  H   6.23588194595529      4.05873649840561     -1.08642134801440
  H   4.97364964981157      2.99241457487556     -1.69887094046272
  H   7.96689109904438      2.83399689493777     -1.05034013236391
  H   7.65259153720887      1.13010429270549     -1.41230850172884
  H   8.08726556588104      1.96021651836211      2.50030701808313
  H   6.78521819605648     -0.43743547390995     -0.64979417855222
