25
Coordinates from ORCA-job 14133optt
  Br  0.94562444683405     -0.13518175988355      0.32439746199374
  C   2.81826061754987     -0.07002995083170      0.16518347246215
  C   3.50358215554212      1.13393811654129      0.20643586046591
  N   2.86743458164726      2.34545933128185      0.37237003558060
  C   3.46242864813517      3.58823109887999      0.15160812366475
  N   2.90325766269957      4.70115527613219      0.37539812241664
  C   4.84883286562510      3.51331615630892     -0.42761691825429
  C   5.65792509832120      2.38937496390806      0.21217786116765
  C   4.91621171963395      1.08869126402871      0.10716083115324
  N   5.58330288519182     -0.02944685306437     -0.04835540790211
  C   4.92991410975964     -1.19144624674609     -0.09961714931520
  C   3.54801337630827     -1.24363349545111      0.01082672061603
  O   2.87006876787038     -2.42405668123243     -0.03292431136091
  C   3.61164080729161     -3.54520884047749     -0.19257775198731
  N   4.86220182101269     -3.63298039256019     -0.30092164796057
  C   5.66589456306683     -2.46435762098836     -0.26204018009953
  N   6.92358642243697     -2.50838504679569     -0.35796453337540
  H   1.88190142113022      2.32815676335824      0.59248635253561
  H   1.95945623325931      4.59782835401195      0.74760939994854
  H   5.31602537794538      4.48603773884249     -0.30028078623289
  H   4.74857807998802      3.32492572584861     -1.50105149177463
  H   5.82697125579124      2.61277424874844      1.27073203673217
  H   6.63329041647671      2.27412420901912     -0.25611261760230
  H   2.96949006189375     -4.41815521785824     -0.21697325455366
  H   7.21310660458884     -3.48113114102065     -0.46095022831825
