27
Coordinates from ORCA-job 14130optt
  Br  1.06330328394321      0.20783778951621     -0.36898160412413
  C   2.93790196642608      0.14419562749800     -0.20073878028189
  C   3.65191060986580      1.24193786052176      0.16619653178004
  N   2.90786261455200      2.37464845534090      0.50106878916403
  C   3.17472874647380      3.60220681445256      0.29496131250683
  N   4.26630387781398      4.20473154951234     -0.23815747866436
  C   5.54952132125100      3.55372809553289     -0.41842883888518
  C   5.76872231846871      2.46785921576422      0.64233272160728
  C   5.10586654451337      1.17414002423424      0.25268047741688
  C   5.87068389668081      0.07478460011713     -0.00988616497774
  C   7.36666124474204      0.08879048055302      0.01811761035231
  C   8.11771954409790     -0.45306620736347     -1.15693935590742
  C   8.15415999733689      1.01376478063325     -0.86951567252288
  C   5.31592113590501     -1.25725615231664     -0.26375987396729
  O   5.95903101694119     -2.27877706856514     -0.31442590727197
  S   3.56763368615331     -1.40983582946552     -0.55433726368467
  H   2.40279050084019      4.31660615776421      0.57883120329978
  H   4.23706899888416      5.20792664544322     -0.29088852345956
  H   6.32102666116508      4.31846508757634     -0.33067123966426
  H   5.63098610658110      3.11733207593458     -1.41767327681017
  H   5.34484212372388      2.81774942356494      1.58697970484302
  H   6.83171631634367      2.31675650663424      0.79211226108296
  H   7.80677738778647     -0.13230899575357      0.98438424959311
  H   7.53034759763173     -0.78506961477154     -2.00137903809580
  H   8.99844531130867     -1.04549690257453     -0.95933402034742
  H   7.59615418894025      1.66198123170226     -1.53253867639472
  H   9.06391300162960      1.44536834851408     -0.47500914658677
