19
Coordinates from ORCA-job 14148optt
  Br  1.31492995768260      0.87206475001701      0.43368344799221
  C   3.09846842348932      0.36741171065165      0.48517077623657
  C   3.55512002384268     -0.85880497835737      0.17789269843329
  N   2.76290789211824     -1.84436620812081     -0.33155981457099
  C   3.09223674295124     -3.05722203244435     -0.53224686786806
  N   4.22819551162646     -3.80383574145436     -0.18788048310367
  C   5.41318249839633     -3.36832752536435     -0.04507535741057
  C   6.46649461933492     -4.26451476676652      0.31869293430297
  C   7.36151816959003     -4.99472347080957      0.63335576623706
  C   5.83038017001339     -1.93915700169525     -0.19680996281620
  N   6.98833168271559     -1.57204614251099     -0.61563404747947
  C   6.99702125730818     -0.15240327544820     -0.60676826216866
  O   7.87246770926392      0.56696580711453     -0.95951014664059
  C   5.65115418503187      0.25570092673835     -0.02180885557986
  N   5.20061394238738      1.40718123705597      0.21589996607459
  O   3.93269221402322      1.37832414209641      0.85597286917022
  N   4.97983837222928     -0.94056833120237      0.22776049935541
  H   2.33571393108865     -3.68957962481203     -0.98487352328446
  H   8.15673269690665     -5.64709947468774      0.90973836312019
