30
Coordinates from ORCA-job 14145optt
  Br  1.23635699172766      0.09614244564337     -0.17651638609022
  C   3.12464568747922     -0.00138844157609     -0.05758349580365
  C   3.74323845841375     -1.20075231962775      0.27798186776304
  N   3.03212488367136     -2.40153524127186      0.56049427244919
  C   3.21129787387806     -3.38132166181091     -0.47961837860895
  N   2.53393938050524     -3.38114692139745     -1.54011133631654
  C   4.35920963171199     -4.32507464088120     -0.26545435153743
  C   5.70256474253283     -3.58751230291796     -0.39122895874678
  C   5.92472405026760     -2.42747622189088      0.59314363249919
  C   5.13941236257698     -1.17614819478449      0.28776464838474
  N   5.82308948650473     -0.06174448999899      0.03200890644479
  C   5.12493367420544      1.03265758100761     -0.25496877308751
  C   5.87037261381315      2.30419633371591     -0.53819416156018
  C   5.44235913542421      3.42540893994211      0.42034723225966
  C   6.12149156241545      4.68085346699106      0.11919898510807
  C   6.69349667246157      5.69748782377014     -0.15184744865171
  N   3.79321049446933      1.09628112144515     -0.31672806593511
  H   3.34437633671344     -2.77550271682931      1.45067804966265
  H   1.82548621183843     -2.64559414268191     -1.50949133381832
  H   4.30040295250888     -5.12350582559396     -1.00237080018159
  H   4.28388891310115     -4.77195355925685      0.73185819566075
  H   5.80604202132201     -3.21440078411686     -1.41281075783500
  H   6.50168914184993     -4.31415781208446     -0.23706144008686
  H   6.97546486200378     -2.14324935692647      0.59031408475865
  H   5.68344891487527     -2.76338789607963      1.60853254833260
  H   5.65148276267111      2.61683083289160     -1.56106548506329
  H   6.93835384900794      2.11619220738894     -0.45679058008164
  H   5.66235762367128      3.13430054377757      1.45036416085020
  H   4.36236530532384      3.56337140548660      0.34758307331418
  H   7.19517340305430      6.60512982766696     -0.38742790408293
