23
Coordinates from ORCA-job 14141optt
  Br  1.14783823727905      0.26322968083896      0.93857036554485
  C   2.95819026183362      0.23512153971636      0.40009889926201
  C   3.63603275861613     -0.96799549850545      0.22512370115572
  N   3.01322553494777     -2.20451269510147      0.37605775581746
  C   3.54666341678809     -3.27785947447133     -0.32339983849972
  N   4.75116738571169     -3.38486583625584     -0.68526015204854
  C   5.64847040909181     -2.33240151888948     -0.19555672083124
  C   6.90450792766145     -2.32617769794323     -0.94797437050537
  C   7.94703178578258     -2.30130197707533     -1.53396868275529
  C   4.97900128242996     -0.96822048370009     -0.16188432386912
  C   5.63253844922293      0.22427167904876     -0.42278508837584
  C   4.95390946717627      1.41828022002092     -0.25326932016564
  C   3.62385419622498      1.42812197946708      0.17096330227817
  N   3.11443011165180      2.70025054775889      0.30269777516011
  C   3.96787327017938      3.74166226918175      0.01052274055708
  O   3.70661202912666      4.90848015722026      0.07277870068674
  S   5.54431597352565      3.04812876992270     -0.47904824194625
  H   2.01472232037655     -2.19677237737059      0.51800180269123
  H   2.83478048426571     -4.06082759439166     -0.56782290757178
  H   5.89862431302631     -2.59897548900860      0.84188391357356
  H   8.86809997107940     -2.29767616767362     -2.06662575282163
  H   6.66747537735698      0.20874972642322     -0.73846334601772
  H   2.16963503664518      2.89929024078780      0.59735978868121
