22
Coordinates from ORCA-job 14153optt
  Br  1.18650890728517      0.21574125586956     -0.40395252997725
  C   3.03480503583577      0.04696590025897     -0.20316672710924
  C   3.66398994163235     -1.14029428085390     -0.14576547290952
  N   3.05843666910763     -2.38690963506115     -0.21154881083683
  C   3.81863986847725     -3.51188378395671     -0.00620543668283
  N   5.07323743700756     -3.57476431889022      0.14177722674408
  C   5.86781094931817     -2.37094582084564     -0.00854114594539
  C   6.66917806266988     -2.45942718237113     -1.32704129532390
  C   5.77516894867702     -2.43649193501101     -2.48055896680103
  C   4.99064600437597     -2.40297478410408     -3.38463685701872
  C   5.09028751064670     -1.07260746012139      0.00045672576895
  N   5.74956411010146      0.02776106382423      0.10299383681430
  C   5.09297028180673      1.23887694148883      0.06026213913990
  O   5.58131275671674      2.31267137181430      0.15348877021017
  O   3.68741721494749      1.19508302885748     -0.12575962644334
  C   3.03470923785389     -4.73583495139570      0.05152349906239
  N   2.37175160208581     -5.66865517297700      0.08502953624645
  H   2.05632209429281     -2.45726673567459     -0.29635047298698
  H   6.59012407115049     -2.32924239738797      0.80872975006948
  H   7.24424362525146     -3.38577552233579     -1.31205461576442
  H   7.35984453576556     -1.61603721239571     -1.36747490865965
  H   4.31603113499400     -2.37798836873135     -4.20720461759660
