29
Coordinates from ORCA-job 14159optt
  Br  1.07808436338326      0.20997644929747      0.41558591443431
  C   2.93235462154091      0.10136273849620      0.18169888288915
  C   3.60918593333161      1.17680977685489     -0.30370351547971
  N   2.98030903329019      2.33154710032172     -0.74902048699414
  C   3.33174665844471      3.45342564928215     -0.27032407682898
  N   4.08629785799200      3.70655514086855      0.86588754678652
  C   4.00313889549503      2.79714623368638      2.00769877360940
  C   4.33952416534744      3.51305390262754      3.23940105114967
  C   4.64065282255809      4.09102769616581      4.24295229730786
  C   5.40634967381039      4.25366802348680      0.56369656642421
  C   6.38556718424344      3.16811524554958      0.10310029720551
  C   5.83163505907552      2.21245957211407     -0.96226498229944
  N   4.98706214778232      1.13267461548674     -0.43234575184702
  N   5.68982435394252      0.05595784542979     -0.05081896653173
  C   5.07309537775423     -0.96896064024214      0.41351015836704
  C   3.62284314117737     -1.10594958727607      0.57685074605305
  N   3.02643790414014     -2.14535596990030      1.02375874185940
  H   3.03502783410841      4.35194702419798     -0.81160497275094
  H   4.66182773652860      1.92509284357424      1.92431607206575
  H   2.97956224505039      2.42166103973346      2.06545668879979
  H   4.89108013868024      4.60529612924699      5.14015296270682
  H   5.78670688020225      4.76619830642212      1.44766993278866
  H   5.27553558886966      4.99932027091955     -0.22512000319874
  H   6.72618167555600      2.57098816864456      0.95289198440307
  H   7.27303529008876      3.65581658303256     -0.30581441343094
  H   6.66040857521647      1.69938249779845     -1.44311489819177
  H   5.27949040419586      2.74770868843044     -1.73382953947707
  H   5.70574150742226     -1.80244825608310      0.70117098484361
  H   3.69929293077187     -2.87647708816645      1.24816200533666
