25
Coordinates from ORCA-job 14157optt
  Br  2.42981611745074     -0.34627327620742     -0.65339107354053
  C   3.36086313471183     -1.92444885540686     -0.27348231466047
  C   3.68462917049548     -2.28543260873980      0.99993110786774
  N   4.56206635457983     -1.32424643505843      1.49445042865184
  C   5.60925324810522     -1.17580381739381      0.54422197626863
  N   6.65229097401745     -0.48078014067525      0.66864031301256
  C   5.43937876040546     -1.96114580175352     -0.79080091590305
  C   6.69415690109695     -2.22754007670088     -1.54114558293839
  C   7.38042157607061     -3.37001898278881     -1.48083333928355
  C   7.03751770485608     -4.54825352328823     -0.67336339086821
  C   5.78867252925290     -4.97790875150602     -0.48801848123150
  C   5.36138649043476     -6.01177504636227      0.45695352686688
  C   4.24139071510474     -5.90803210477807      1.17656718537144
  C   3.38788487917425     -4.68722015370887      1.17600349064274
  O   2.19668492218718     -4.66449306044536      1.20997694945418
  O   4.18389752410593     -3.57509730032523      1.18887485450814
  N   4.30300392133779     -2.34730294238482     -1.25658353746351
  H   4.80666709123384     -1.25102665374304      2.47467841803490
  H   6.66656693967989      0.04477126462645      1.54319148408939
  H   7.08361468359588     -1.39444180945731     -2.11420799615885
  H   8.32121804038845     -3.40902224111855     -2.02011060561190
  H   7.86313878930274     -5.04892261428335     -0.17444137945759
  H   4.99663040487395     -4.49188044512886     -1.04040273688587
  H   5.96839361816659     -6.90638293018233      0.55421005201915
  H   3.88545550937137     -6.71632169318935      1.80108156721583
