23
Coordinates from ORCA-job 14152optt
  Br  0.22148679449793     -0.70844015416586     -0.50547618580893
  C   0.49620532171858      1.03800177650023      0.09412754509567
  C   -0.36060700740571      2.04681139141204     -0.13334905262178
  N   -1.50365696263813      1.87069295977824     -0.88907704304097
  C   -1.82023448504403      1.48186650394031     -2.17524299501507
  N   -3.02916941084030      1.90786997717555     -2.26874695890644
  C   -2.86198709239460      2.43953191648717     -0.88635718688597
  C   -2.97942462627171      3.91007482163274     -0.81164875393945
  C   -2.06412814867310      4.74441605527161     -0.29803399664494
  C   -0.77207016749290      4.48496182702653      0.33377581373898
  C   -0.04380772574462      3.35378108034392      0.43201496539697
  N   1.14660787993491      3.37808712820989      1.14900138818591
  C   2.04883605408532      2.36060674171391      1.29694583451444
  N   3.13394680012953      2.50933904867339      1.90749055669554
  O   1.67559767197485      1.15806704321125      0.74027570671143
  C   -2.40752838217637      6.14824216169043     -0.31729519739180
  N   -2.66217703696404      7.26676255953440     -0.31171880603629
  H   -1.20001956073183      0.93715433815337     -2.87776052454693
  H   -3.51834885155798      1.92751139131998     -0.17766902553459
  H   -3.89854541816793      4.31531654971691     -1.21582955507662
  H   -0.33987535399977      5.35917901133478      0.80637580665458
  H   1.44172514780271      4.24460971729618      1.57319564277561
  H   3.67317455995923      1.65055615374298      1.93400202168066
