25
Coordinates from ORCA-job 14169optt
  Br  1.21440297786493     -0.59894314315301     -0.51937780035839
  C   2.99161777398295     -0.26673327486424     -0.07981948072856
  C   3.47753093664859      0.98182297821258      0.07163192346624
  N   2.65359809908027      2.08843853722111     -0.03114132698147
  C   2.95551520289540      3.20396450808583     -0.55392480396401
  N   4.13925051897461      3.65720929436351     -1.11621792449835
  C   4.02262395876219      4.70931316239379     -2.12404137366674
  C   4.52000403343460      6.00975496477924     -1.66995369170015
  C   4.91976409761273      7.07396713998244     -1.29842382834037
  C   5.42558236263384      3.28907712082014     -0.67533140600031
  N   6.51165807719385      3.64879046777657     -1.20861316729832
  C   5.46895416189318      2.47341331611616      0.59362832803448
  C   4.88939756652679      1.10425341095024      0.41545802897286
  N   5.68205403222114      0.11989577528580      0.58302178330190
  O   5.17803293326634     -1.14486722924716      0.42683301544465
  C   3.87251323451324     -1.42130146848873      0.08209772202300
  N   3.49773153295930     -2.61299070156717     -0.06534399155233
  H   2.15520080389888      3.93901827773666     -0.62203819454915
  H   2.97210793258633      4.79443823722708     -2.39908678709068
  H   4.54960747850321      4.40073147731694     -3.03011071540171
  H   5.27994323353004      8.01841042774923     -0.96465325050021
  H   6.40183216567425      4.23137091558150     -2.03454950080511
  H   4.91077917892378      3.00172703138152      1.37256948449018
  H   6.51002937262446      2.38613953740406      0.88740889420546
  H   4.26826833379504     -3.25790076306411      0.10097806349709
