21
Coordinates from ORCA-job 14166optt
  Br  1.19670860080906     -0.70772618059522      0.72674499531303
  C   2.87388028298388     -0.04801139519812      0.27239906752749
  C   3.18236985841219      1.25275344163181      0.14870415664767
  N   2.51165562714215      2.46175805969264      0.28201875619281
  C   3.42537564738182      3.32824382218706      0.02267135885613
  N   3.30831702835080      4.66236891555207     -0.04406980937693
  C   2.08716776925819      5.30032555287680      0.43462264408565
  C   2.12295335464066      5.53502311629707      1.88749246229439
  C   2.17351549375735      5.71765470815895      3.06750189676053
  C   1.85618487081181      6.54734889240742     -0.30241818758442
  C   1.67912182256200      7.56532875164046     -0.90201886912042
  O   4.68311301184191      2.84353943863915     -0.26763437104553
  C   4.54549460498371      1.49453574654404     -0.19926374433998
  N   5.49436004228659      0.67133370974819     -0.41799601554009
  C   5.15569420383929     -0.66073311300569     -0.31003320689372
  O   5.86307052103393     -1.59211011306160     -0.49262162391685
  O   3.80908023554772     -0.96880706347515      0.06413823384029
  H   4.15556102521410      5.20902740558086     -0.07403845238798
  H   1.27531746362948      4.60030437709492      0.21820697399021
  H   2.21395172509060      5.87819436476929      4.11886209367461
  H   1.51510681042272      8.47164756251501     -1.43526835897690
