23
Coordinates from ORCA-job 14175optt
  Br  0.49364407634760     -0.55283259127665     -1.97412447405987
  C   1.42025843546230      0.47031196055382     -0.68723740096893
  C   2.40916671371170      1.31248957785540     -1.07964508400721
  N   2.69926070914129      1.64846429920998     -2.40625414612189
  C   2.27382954124838      2.78798111231184     -2.79732373529785
  N   1.63249184792094      3.67104729697787     -1.93960711340487
  C   0.51457382226474      3.39416886644115     -1.40912562700026
  C   0.25660016712132      3.81391271069120     -0.02643543437671
  C   -0.44824464543346      2.97874859655304      0.74133639635549
  C   -0.19196976220811      2.82332799441537      2.20269363771998
  N   -0.55183798208422      3.51221749080562      3.17803274615502
  O   0.60853748956396      1.70220690743037      2.47880364102472
  C   1.33934240854082      1.29068133919732      1.40248768046027
  N   2.50599861719970      1.94694639807311      1.22443785214382
  C   3.13715068664368      2.04094706307529     -0.02880056055411
  O   4.11855022012161      2.72066123541052     -0.17441714099233
  N   0.85711873020764      0.46326492072534      0.55756390502741
  H   2.52157636121623      3.13574998062683     -3.79526162050583
  H   -0.16421557963931      2.64304513170820     -1.82944267137681
  H   0.92433170011071      4.56029196343871      0.39031279894509
  H   -1.03243286068144      2.18642501785534      0.28334994707533
  H   -1.16142310812854      4.26921778072752      2.87877103631901
  H   2.85269241135244      2.56172494719278      1.95088536744052
