27
Coordinates from ORCA-job 14183optt
  Br  1.52049762044371      0.01809287473356      2.56556174865188
  C   2.52496313842096      0.48075371824660      1.04169842029734
  C   3.42250988247023      1.49009875609835      1.07000059899950
  N   3.30785646912588      2.51995408506987      2.00038094798918
  C   2.12678490023417      3.32859076237897      1.77960428715326
  N   1.50482688506636      3.88170383745957      2.72290827009258
  C   1.67313141819234      3.59253424146636      0.33866066714672
  C   0.21850781732182      3.24568403094019     -0.03868543655795
  C   -0.09608065081231      1.85663684769828     -0.63907639059075
  C   0.48594500247065      1.64857112189739     -2.03035733067394
  O   0.04188616767035      2.20769203403373     -2.99480670751732
  N   1.60959734460864      0.78986096827523     -2.23317230744299
  C   2.46392695021512      0.53778155587079     -1.18529091917301
  O   3.65214159926059      1.16193942371398     -1.28958978903318
  C   4.26139207328039      1.64785599858027     -0.11803824719710
  N   5.37303445739824      2.22166557930182     -0.14596496097761
  N   2.05888659053321     -0.05431162306795     -0.13185703668986
  H   4.15129262528950      3.05155280175090      2.17231498462502
  H   1.90590237656438      3.62306703940315      3.62382830677773
  H   2.37157115626311      3.17329221878206     -0.38485948742936
  H   1.76931089421802      4.67548120861950      0.23962208233616
  H   -0.39880838673580      3.36997951149049      0.85223447819983
  H   -0.12280015028414      3.98606006458479     -0.76330270497056
  H   -1.17340256032703      1.82990017855253     -0.80843167177347
  H   0.14526371867012      1.04977892199035      0.04165020033722
  H   2.03076663977569      0.96007712679091     -3.13899310340551
  H   5.76009602066575      2.28070671533822     -1.08503889917381
