27
Coordinates from ORCA-job 14181optt
  Br  3.37042391319305      1.36449384651445      1.74326425309254
  C   4.58423599379510      0.21375000751184      0.91186856709120
  C   5.84064704503928     -0.04141113509901      1.29003172711628
  N   6.59215300348057     -0.93496183556058      0.54820051301179
  C   6.21080909316724     -1.30398005836317     -0.61355452084947
  N   7.09330257714895     -1.94422214436305     -1.40955610466544
  C   8.46259449054472     -2.17504450185580     -0.95659241135624
  C   9.38038320842615     -0.93128062496841     -0.93124074746080
  C   9.59709923183053     -0.23929661332984      0.42463742694336
  C   8.45196125874805      0.69206627490649      0.77942388277263
  O   7.93679154337574      1.40685935613340     -0.04371885371065
  N   7.99536374677204      0.66401220552329      2.09292798652972
  C   6.62050823574154      0.59732953581865      2.39511958456805
  N   6.22189593694117      0.92623987791178      3.54599804072994
  C   4.84357984573831     -0.99381213016893     -1.11805544069557
  N   4.31492997592947     -1.25565123607333     -2.22544905129426
  O   4.05522522790344     -0.36644207864944     -0.18988868807151
  H   6.76724621528329     -2.42930095160433     -2.22592082584762
  H   8.88012424075865     -2.90198078155815     -1.65089633495985
  H   8.43468864447008     -2.63961477196480      0.03244807202669
  H   9.01195010313446     -0.19394762269959     -1.64547099717559
  H   10.35954597695721     -1.25654644449296     -1.28596149721760
  H   10.50466489414041      0.36646615792800      0.36066369716585
  H   9.74844252560298     -0.97926838839262      1.21253691657488
  H   8.59655978349698      0.28695098043835      2.80891994409725
  H   5.23650217657750      0.70843856386152      3.66837322747338
  H   4.95237111180283     -1.73084548740375     -2.85510836588895
