26
Coordinates from ORCA-job 14184optt
  Br  1.33967745123013     -1.11195643339312      1.38465515653575
  C   2.16380752111176      0.07102470676423      0.17515151814976
  C   2.84233925976442      1.17503662458210      0.58093893785375
  N   2.72099071200809      1.76526199141134      1.84007512724081
  C   1.40247854492459      2.33897105077388      1.83374240723754
  N   1.23816920194855      3.55158637623753      1.57349792245039
  C   -0.11797325462678      4.03495038837430      1.37856655301800
  C   -0.33668256062778      4.29868901886345     -0.11791349228749
  C   -0.84981719166126      3.10115733318686     -0.92691491093006
  C   0.00173978403306      1.85738772622596     -0.99608469878679
  O   -0.37606001533655      0.75505012410424     -0.74579576147444
  O   1.26664775247044      2.13770953896483     -1.45036356192964
  C   2.17955601104463      1.17338545691922     -1.80632960735150
  C   2.27400865561699     -0.07478761654642     -1.26618502522815
  C   3.55425275048624      1.74847070144436     -1.66509950534590
  O   4.47083418324074      1.97416609363859     -2.36959172490257
  O   3.63902933139721      1.94578653104601     -0.26789708689050
  H   3.40724342110963      2.50758027605544      1.94004083781535
  H   0.60332966552185      1.60764757566503      1.97582368478516
  H   -0.22337541839380      4.97161643853664      1.92547927244552
  H   -0.87003629736746      3.33147506028259      1.75892185003132
  H   0.59696097920165      4.67265975789648     -0.54026428257615
  H   -1.08110064763876      5.08807150731415     -0.23250827648489
  H   -1.81372649810341      2.76824846000692     -0.54345088093417
  H   -0.99911835773478      3.42428886555341     -1.96099374115375
  H   2.99082501638057     -0.76947755390808     -1.69150071128736
