25
Coordinates from ORCA-job 14194optt
  Br  1.74106031200113     -1.68727621803452      1.04623091160966
  C   2.66733002039892     -0.18148470342431      0.43516125707366
  C   2.18812004877122      1.07466872540075      0.50906188394829
  N   0.89213867394987      1.37363491957700      0.96610255013858
  C   -0.20941362213884      1.09580517406759      0.18487224966512
  N   -1.28630426947010      1.76324048950346      0.12549507546521
  C   -1.39806288156964      3.01854627374313      0.71602613372723
  C   -0.57352554634594      4.05500737412432      0.50340991487859
  C   0.67600551409527      3.93131916327846     -0.29082640938568
  N   0.77899507719957      3.48063213648656     -1.47143032582737
  C   1.91345131050326      4.30759648523188      0.44109698183308
  C   2.97276845818768      3.52425684867519      0.62812727276183
  C   3.17196063258471      2.11380580150616      0.20742497421879
  N   4.33344956530158      1.83472756995193     -0.27284730771527
  C   4.62410825194284      0.53748100416588     -0.65230933442471
  N   5.52419116270636      0.14759025194320     -1.42980263128311
  O   3.85698626507316     -0.47850251250034     -0.06549369651720
  H   0.81621874569520      2.20105937991954      1.54250642236776
  H   -0.11220063164143      0.19467641438659     -0.41527707397623
  H   -2.28078935268323      3.15623042847090      1.33113837784987
  H   -0.77784656253431      4.99964687835294      0.99272947031635
  H   -0.14393879914635      3.24768809562379     -1.84353584965798
  H   1.93885246382800      5.31108101266625      0.85508677589699
  H   3.84972025057931      3.93572213147888      1.11509245022553
  H   6.05072491271173      0.95284687540471     -1.75804007318902
