23
Coordinates from ORCA-job 14190optt
  Br  3.96654287733392      0.99137649088623      3.50089321006789
  C   4.10834568358531      0.12135412165326      1.84559687421193
  C   3.33272992675311      0.43495870879962      0.77833488932760
  N   2.42941389665353      1.51300726427710      0.79909089585154
  C   1.30644401684685      1.88678416494255      0.08311862600243
  N   0.45765797707288      1.35220592332797     -0.67611716256796
  C   -0.03476203276682      0.38104168323849     -1.46873647922820
  C   0.58975633302535     -0.58637243399030     -2.19530493258549
  C   1.94033624188293     -0.92014936991280     -1.86296497437231
  N   2.68189922795144     -0.00043787812091     -1.37481450396395
  C   3.60400811898430     -0.34255570008431     -0.41426836626073
  N   4.50658916120857     -1.25574359531542     -0.52783204859586
  C   5.32442316328105     -1.54023840058117      0.55140428572039
  N   6.26984522322934     -2.38325833197308      0.59220862006641
  N   5.06133772313642     -0.82411525902920      1.73949879828227
  C   1.05189021226496      3.31086724503654      0.36493511309786
  N   0.86026192319939      4.41741037341258      0.59320702456798
  H   2.71328504491236      2.24150221702577      1.44062639288359
  H   -1.11890833951028      0.42070208260277     -1.53554184725384
  H   -0.02188351729752     -1.24992564581908     -2.78867938196784
  H   2.22965521523955     -1.97571548909929     -1.82248881140159
  H   6.35909044101596     -2.83573186134827     -0.31227791750192
  H   5.66004148199739     -1.04396630992906      2.52211169561980
