28
Coordinates from ORCA-job 14199optt
  Br  2.65576921633642     -1.70432280274578      0.54880881203904
  C   3.14052805726954      0.03877629461504      0.08100568969506
  C   2.44624573515370      1.13059546071313      0.51151205126689
  N   1.37099438625922      1.02970917168623      1.39860760450804
  C   0.28792092811653      1.66632754367741      1.14905110913913
  N   -0.07622999035477      2.29959492775036      0.00898757302411
  C   -0.99561303284797      3.43564996255157     -0.00694230295597
  C   -0.50207603518101      4.57733379877419     -0.89802699515564
  C   0.78413377273388      5.28291656940768     -0.45127696934335
  N   1.95367549645183      4.43299273552376     -0.53989840688315
  C   2.35773790603809      3.66387864926507      0.51497391032260
  N   2.09599487032364      3.96736797642359      1.71941712794750
  C   3.01943631811805      2.38326165018137      0.06504457288085
  N   4.02256463952722      2.51136735072131     -0.74694723172665
  C   4.66963477501708      1.39513889108385     -1.24073183791950
  O   5.56009555672267      1.41362580658682     -2.05282801216184
  N   4.21827738716619      0.17092572710068     -0.72438050356001
  H   -0.46041646557704      1.71224842956392      1.93751694791418
  H   0.55340912354441      2.22841191829441     -0.77605263150726
  H   -1.10605767504475      3.79662642174513      1.01723667678644
  H   -1.97884913223639      3.11547131078153     -0.36082358469367
  H   -0.36966972642823      4.20148707977697     -1.91881034339931
  H   -1.30265969689111      5.31914988579290     -0.94750867533736
  H   0.70256667664216      5.61251927952739      0.58400108592188
  H   0.94069760497349      6.16757410285055     -1.06947868104024
  H   2.32178062656121      4.18721613580057     -1.44502892114597
  H   2.40915747084840      3.24161875275777      2.35752540846283
  H   4.70495120675754     -0.65046303020748     -1.05595347307862
