26
Coordinates from ORCA-job 14192optt
  Br  1.11871246602394      0.05764739455379      0.20838387285605
  C   2.99556247789167      0.03775204258895      0.05189182403415
  C   3.69097297062600     -1.17624331402892      0.13393753290745
  N   2.98996537673312     -2.36746386078402      0.28144375182478
  C   3.65650608758066     -3.45187327880646      0.13506768769797
  N   4.99230370536521     -3.56713706665555     -0.06949352953585
  C   5.62449797772940     -4.86028896276085     -0.17627340870083
  C   6.27830860027771     -5.05767550671807     -1.55211007246235
  C   6.91464564136751     -6.36933218433545     -1.63710274676205
  N   7.39632381499349     -7.40799048178871     -1.66441374249095
  C   5.85067446137917     -2.42738224500108      0.21661150353117
  C   5.08892445524721     -1.14181860211980      0.03037162018234
  C   5.76005156588993      0.04488379539732     -0.18238794125673
  C   5.04621364212764      1.23755130407820     -0.27371314120736
  C   3.65916194834575      1.23358384970282     -0.14819433842035
  C   5.74740232075492      2.46635509556180     -0.50275900387948
  N   6.32502189818406      3.43964087467376     -0.69193643261832
  H   3.11591553715986     -4.39581393956834      0.14723672359347
  H   4.87423939368072     -5.63502515720903     -0.02030709472438
  H   6.38052515460697     -4.97283478365662      0.60694467790615
  H   7.03496360136590     -4.29342411873453     -1.73637639092202
  H   5.52470528952445     -4.97384365344457     -2.33586911393724
  H   6.71826844452390     -2.44781515094347     -0.44617876190367
  H   6.23022887316857     -2.50564251155982      1.24598264037858
  H   6.83932490247807      0.05876655507263     -0.27207660449772
  H   3.10357939297403      2.15842390648608     -0.21267951159280
