27
Coordinates from ORCA-job 14193optt
  Br  4.60403126514125      2.00207425102048      0.87824361259274
  C   5.10017129991811      0.26573837913569      0.36113390553863
  C   6.17526423607693      0.03776651873967     -0.42299867587603
  N   6.49457389423755     -1.25476140754354     -0.77252172250785
  C   5.94752247700040     -2.32450105050190     -0.12413962175762
  N   6.58472696241402     -3.54722524314837     -0.37026007705087
  C   7.95794457034133     -3.67696733250825     -0.50055042903136
  C   8.85735683356932     -2.87255671359588      0.07813142197428
  C   8.51686350898309     -1.88362508131463      1.13229477616088
  N   8.68843887740405     -0.63241431972109      1.10344764187055
  C   9.22666040653742      0.04119008233954      0.01066637538883
  C   8.57264989085971      0.78843038836548     -0.88923367560484
  C   7.12184986100095      1.04301862051851     -1.00574790121866
  N   6.75219284401263      2.06199092350860     -1.66536667736467
  C   4.87372471237597     -2.16237828925818      0.67240048663531
  C   4.28515407445740     -0.84497938064164      0.89370209394267
  N   3.21546653979106     -0.60285880509834      1.55018303508421
  H   7.34233802337100     -1.39634048173570     -1.30186603748901
  H   5.99973929409232     -4.33828335058136     -0.57593313286265
  H   8.27537426818125     -4.47677270802451     -1.15905928318358
  H   9.89956076725004     -2.97987916663942     -0.19614540281198
  H   8.06796872572085     -2.29005587303505      2.04019555228937
  H   10.31355256625766      0.03852846310173     -0.02209650753275
  H   9.16585072464649      1.35720034974872     -1.59267267641816
  H   5.73554736790922      2.14011926709502     -1.68581136355942
  H   4.46635380767401     -3.01401619051126      1.20019671210810
  H   2.78512220077586     -1.47044184971432      1.86480757068388
