26
Coordinates from ORCA-job 14197optt
  Br  5.69120804326462     -0.22021402161292     -3.25002596298155
  C   4.90644169694347      0.80302096983776     -1.89268649343099
  C   4.50038494406135      2.09282637651685     -2.03586862902731
  N   4.93188737545376      2.92589602647710     -3.05095513661383
  C   6.26718377552117      3.08252186977929     -3.48113000376743
  N   6.58388949451030      3.75532777299155     -4.50736038956658
  C   7.35543555505151      2.43486521246460     -2.70585622622203
  C   7.39390870055420      2.18558759211184     -1.40040322831099
  C   8.48783663791539      1.33604508528625     -0.84677067872537
  N   9.69322671100879      1.72927868521913     -0.73197069033369
  C   8.20668365504422     -0.08928727127266     -0.57468663185397
  C   7.08138192988369     -0.75865929478171     -0.27895378129054
  N   5.82976134853929     -0.30913895924555      0.10034507454513
  C   4.93733093248740      0.30816169434965     -0.52195068991051
  O   3.83776021328732      0.67641126242256      0.24134969992171
  C   3.26289711529119      1.86343146188361      0.00312540363455
  C   3.60838011351590      2.63498567048566     -1.03307608106560
  H   4.31714915319910      3.68384022377470     -3.30737046308787
  H   5.76992617593872      4.12135783898300     -5.00054379153196
  H   8.17422702291205      2.10542824216586     -3.33525462520016
  H   6.60517627782724      2.49580546489083     -0.72433795547149
  H   9.77580162519892      2.71163071518456     -0.99428823930768
  H   9.10652277427554     -0.69086822371823     -0.61831332046408
  H   7.18451604671110     -1.83067633959662     -0.14068085202037
  H   2.51552742141654      2.11083648414890      0.74264981485643
  H   3.18455526018715      3.62158546125396     -1.14998612277380
