15
Coordinates from ORCA-job 141optt
  C   -2.06937025732328      0.95415585119822     -0.00001628491975
  C   -1.70449591790697      2.26518404937221     -0.00000512803054
  C   -0.28735022599353      2.26818881315395      0.00002669822222
  C   0.08628773731150      0.95815556378883      0.00004185049773
  O   -0.98919404681267      0.15142621119628      0.00000914382479
  H   -2.38045197668446      3.10292680471620     -0.00002049272026
  H   0.37939144337297      3.11310314097183      0.00004391356207
  C   -3.41831106350856      0.36569564335472     -0.00005067718968
  C   1.40937858819225      0.31396887699923      0.00008252134035
  O   -4.41751177935871      1.03039511936517     -0.00001577779314
  O   -3.40126614074875     -0.97040247299796      0.00000107777807
  O   1.60431855546503     -0.86612654497785      0.00000362753317
  O   2.38563778257206      1.23896579888171     -0.00003243546605
  H   3.22891054027594      0.76349709392044     -0.00008910772016
  H   -4.32197323885282     -1.27013394894298      0.00002107108119
