25
Coordinates from ORCA-job 14208optt
  Br  1.82507593488592     -1.58814929675834     -1.42675245320976
  C   2.93015925787612     -0.26386681324640     -0.69772896410247
  C   3.13911914762913      0.92508345343779     -1.25737157922883
  N   2.33204213168496      1.63933942009782     -2.19022784772760
  C   1.37202879506013      2.13293876083664     -1.48810642235917
  N   0.72336913638805      3.29869503687992     -1.70164154643793
  C   0.22459345661697      3.99862339102209     -0.51106203998206
  C   1.27582603007809      4.36837895264174      0.57159471424949
  C   1.72076365125475      3.22602011062622      1.49880618795003
  N   0.93787847954500      2.40512445367354      2.04547980343395
  N   3.13674005905836      3.01903236036768      1.70219347650026
  C   3.48252983548879      1.87975898266540      0.91983873629636
  C   3.36688877363039      0.51526195723720      1.50075979799781
  O   3.42328870086915      0.24579885539240      2.65199709617607
  O   3.35923138385284     -0.51973902830539      0.56121666481345
  C   3.77942673184143      1.93356945570006     -0.38597932906499
  Br  4.46790213317302      3.50247682128818     -1.17986204463435
  H   1.07103967448744      1.67057291309861     -0.54228285675257
  H   1.10833672937746      3.87066547454154     -2.44151454474814
  H   -0.57237933898606      3.39719188231210     -0.07076172111167
  H   -0.24047691623426      4.91854652663264     -0.86005477783148
  H   2.13803319642201      4.82575223120930      0.08616305446340
  H   0.82132012943263      5.13340045985096      1.20728140286451
  H   -0.03495638127687      2.59699743120705      1.81473671674579
  H   3.66921926784453      3.82152620759121      1.38627847569989
