28
Coordinates from ORCA-job 14203optt
  Br  1.62711612582337     -3.13161817225346      1.43615605042363
  C   3.06117260618549     -2.49472013502904      0.40484162847425
  C   3.01286559966546     -2.49571373544947     -0.94252693764126
  N   4.08829540392488     -2.03426246631321     -1.66223133810540
  C   5.37358858330202     -1.84288115888265     -1.15047189080726
  N   6.39115324646280     -1.50913210492830     -1.84904044633980
  C   5.47314586444674     -2.14979960936453      0.27675500450129
  C   6.81890887114271     -2.55684119749509      0.77630905370459
  C   7.08701534227182     -3.99688495663386      0.26274160457920
  N   6.21369231362400     -4.95577531599788      0.91015097567734
  C   5.12429590184619     -5.35588774888008      0.41706726536668
  N   4.53374966172103     -4.99793328251489     -0.80912022098540
  C   3.18479386213573     -5.21660804228394     -1.03435247720222
  O   2.52470858537611     -5.98204283396758     -0.38296492688334
  C   2.54215213494590     -4.38738089718134     -2.16317645815273
  O   2.06122751083858     -3.11225068526705     -1.68570560613724
  C   4.35175960163489     -2.32568993704751      1.00945887698347
  H   3.95245625585695     -1.92629560748176     -2.65771170136359
  H   6.16330817136644     -1.34788651286106     -2.82765534608731
  H   6.84415522423954     -2.55973804305053      1.86579838989166
  H   7.60011294981834     -1.90364449094648      0.39079570005163
  H   8.11046288511269     -4.26535283388091      0.52390971389728
  H   7.02434948959350     -3.99339255890915     -0.83171800923072
  H   4.50196861666246     -6.05118897536128      0.97171212049076
  H   5.00717585779637     -4.31523018098770     -1.38168535053285
  H   1.66603077166650     -4.92252242410144     -2.51447413977201
  H   3.24597113875064     -4.23468456143676     -2.98691450476542
  H   4.43536742378879     -2.53964153149302      2.06805296996479
