23
Coordinates from ORCA-job 14215optt
  Br  1.04520169144720     -0.11434357762317     -0.10059275762347
  C   2.92760346451272     -0.06984494192726      0.03685343111131
  C   3.60999317361371     -1.23908760595631      0.07372044161786
  N   3.13188233273618     -2.50974295963285      0.02139912639811
  C   4.17511648685673     -3.44822883868967      0.03551454819820
  N   4.10707640255983     -4.71570293172501     -0.00251559774875
  C   5.40905932285987     -2.65998967057216      0.10370140228753
  C   6.74660522383266     -3.30349177487595      0.10170639614019
  C   7.63217477802101     -2.95960379658974      1.27357891425215
  O   7.36592569781821     -2.15102473049730      2.11653553857566
  C   5.06646241276444     -1.35151309948635      0.14785482871078
  S   6.07815795950642      0.03616477972060      0.27221794086212
  C   4.92533334445524      1.33476641063322      0.16785320558805
  C   5.53108839151092      2.68678080427417      0.23144551645774
  O   4.89490856765338      3.70479199610894      0.19103347367109
  C   3.58584634317112      1.19036138460738      0.07917477894972
  H   2.15229661157459     -2.73471232627729     -0.04455411561613
  H   3.15082494880182     -5.05881689010893     -0.04668906287489
  H   7.31854747105050     -3.04079650365641     -0.79888352920451
  H   6.62195220186053     -4.38992045002601      0.06802774588975
  H   8.59248405609065     -3.50907489830284      1.29888845654055
  H   6.63301374462000      2.70690335554143      0.32205185010305
  H   2.99644537268220      2.09912626506155      0.04667746771386
