24
Coordinates from ORCA-job 14219optt
  Br  0.89036973254150     -2.91163619334431     -1.11219777090172
  C   -0.27368838210518     -1.52873083889729     -0.59393425302409
  C   0.28721891006482     -0.18754266827417     -0.11779311134771
  N   0.33927042756471     -0.14483499307841      1.27108427275168
  C   -0.20974522862530      0.92500567784266      2.02657113139649
  N   -0.47822494403207      2.08218427384887      1.61691660202214
  C   -0.45575541134530      0.51906419511926      3.44424457133604
  C   -1.63335862477958      0.36357712206280      4.04294477156871
  C   -2.99799438718330      0.59404775084715      3.46052338139884
  O   -3.83191055430727      1.15653998811252      4.12760346898248
  C   -3.29441699368317      0.14979544192983      2.07511953761306
  C   -2.69890129228885     -0.90087632692704      1.51015827664457
  C   -2.68601342981272     -1.11331613196300      0.06463306526895
  C   -1.56173750287136     -1.56530389655850     -0.44583263073422
  N   -2.27833059248608      0.52988448046887     -2.80782038472905
  N   -1.65675652700384      1.14694436092412     -3.45006858200409
  O   0.50813185005345      0.75217661592067     -0.82618728633415
  H   0.22963238669656     -1.04579316453482      1.71348951212668
  H   -0.21095413292456      2.21377602394188      0.64110147101608
  H   0.44758332648516      0.36486176383189      4.02817798611048
  H   -1.65266243068111      0.14666539875608      5.10533160880585
  H   -4.00505294704129      0.76327625960722      1.53238761421474
  H   -2.01615897956441     -1.50644871631401      2.09593972225688
  H   -3.46154427267074     -0.68431642332227     -0.56039297443870
