23
Coordinates from ORCA-job 14217optt
  Br  1.63423710815528     -1.67269789243890     -1.61609419876813
  C   2.82280019531373     -0.63790238605517     -0.62182924359510
  C   2.83488917872806      0.70373337117092     -0.66863849163804
  N   2.02600317367025      1.45658562385328     -1.55307500508505
  C   0.84048432247213      2.02031535072726     -0.94565551212770
  N   -0.31975569284363      1.57100613838083     -1.13797244990992
  C   1.07021902561211      3.20091309310850     -0.10358611751591
  C   2.23083589682023      3.49375280878215      0.51441179666395
  C   2.23724025899463      4.77244939100123      1.29114196778666
  O   3.18391233892032      5.17138184550839      1.90889866941554
  C   3.44686279077112      2.70467059724027      0.66257010023813
  C   3.69781882734742      1.45464716215822      0.24021946630476
  O   4.82558270756956      0.85033037709335      0.71900593924671
  C   4.92296631836302     -0.51240927756596      0.81289642159058
  N   5.91279483324559     -1.06891706003239      1.33294572757492
  C   3.78943961612859     -1.35763949811419      0.23993357676568
  O   3.74671038286656     -2.53454668686110      0.44199490331015
  H   2.59006606458262      2.23085029082300     -1.89618630162814
  H   -0.28164880335780      0.75375197114471     -1.74977379749615
  H   0.21916003079955      3.86016473343430      0.02672653952640
  H   1.29145053383677      5.34195198423436      1.25464492044067
  H   4.17760852013710      3.14186139403345      1.33329744396488
  H   6.59632237186673     -0.38325333162654      1.65512364493509
