23
Coordinates from ORCA-job 14213optt
  Br  0.99949313852779     -0.36951497142545     -0.10495861691705
  C   2.87563368436199     -0.24683819330165     -0.01319707234422
  C   3.63926215353578     -1.34766171093473      0.00052612902303
  N   3.24972619441776     -2.66106694183933     -0.04227876750205
  C   4.35734270371671     -3.51392267832755     -0.04046254433058
  N   4.39183111790025     -4.78484042837144     -0.07183144246215
  C   5.52989137654842     -2.63077501979156      0.00491377426837
  C   6.90590028705236     -3.18882339620262      0.00018865026688
  C   7.79309511071074     -2.77454920910637      1.14917575843417
  O   7.53697643262642     -1.92200431412047      1.95070042524467
  C   5.10145082421104     -1.34553813530971      0.04244595848158
  C   5.81822897056795     -0.10839615302868      0.09621602610985
  C   5.21232191588670      1.09957646694119      0.09777944704112
  S   3.48942128283938      1.37478134081029      0.03782861878646
  C   5.94870441718066      2.31809958791660      0.15792976062270
  C   6.53941300197659      3.36003486502513      0.20629129015826
  H   2.29103497608255     -2.96503200257612     -0.07285469941555
  H   3.46517703533339     -5.20277150405091     -0.09780123560732
  H   7.45376019762357     -2.91747053254760     -0.91222338720547
  H   6.84516044607574     -4.28133539793600     -0.00856815192671
  H   8.75501836215004     -3.32067463846390      1.19597014932143
  H   6.89766722222952     -0.13231505316086      0.16120587221119
  H   7.07548914844458      4.27803801980173      0.25400405774139
