22
Coordinates from ORCA-job 14210optt
  Br  3.92163431593025     -0.58777100544578     -2.35374242496338
  C   3.01101621384702      0.09246206205967     -0.87076893989024
  C   1.91119770573994      0.84247470436926     -1.02678579174043
  N   1.29630634725590      1.25759935996217     -2.20944941215713
  C   0.66694904599447      2.48874396644902     -2.10713543650144
  N   1.31972896903645      3.37911459255194     -1.47062070466200
  C   0.65773213759183      3.97196279685407     -0.40061973875855
  C   1.35668478179216      3.89646339707579      0.74146661751851
  C   0.71816580445456      3.38600872596849      1.96139880280826
  N   -0.10364340078182      3.84416043304793      2.78046470000874
  O   1.09765169764286      2.03578882346291      2.18143449149537
  C   1.78968278773196      1.32414594160302      1.28224121248534
  O   1.21786600087050      1.28118022206759      0.06059778692039
  C   2.90926443323720      0.62866712730123      1.54282408206550
  Br  3.70025333779125      0.66304713269932      3.23272478128645
  C   3.57311450208759     -0.14956055427196      0.47589405965603
  O   4.54440884654782     -0.83856563987323      0.66558075256610
  H   1.06711788391724      0.56831497730338     -2.90935668921763
  H   -0.39361852208122      2.53491956303397     -2.37762712791624
  H   -0.42372339488743      4.10937929165197     -0.41731303717144
  H   2.41026796900456      3.65864016144125      0.63802209615090
  H   -0.27605746272311      4.82782392068794      2.59076992001689
