24
Coordinates from ORCA-job 14225optt
  Br  0.97568240662158     -3.12198038339510     -2.81049782830847
  C   1.99534415460104     -3.40064491246449     -4.34612225741480
  C   3.26730713496646     -2.99955953192425     -4.53717567433988
  N   4.12524482273237     -2.68714646587329     -3.47433833358407
  C   4.27497996767336     -3.56795158813753     -2.39938995791357
  N   4.65988191669108     -3.27373762847357     -1.22866378188779
  C   3.96278495071963     -4.97496641524507     -2.76974000158974
  C   3.37151345006852     -5.87864417428458     -1.99020065373876
  C   2.97905544390743     -7.22244789940419     -2.51791398829618
  O   2.70625575857027     -8.15985059859399     -1.81755245315549
  C   2.96225752875525     -7.27744020234717     -4.03837720947670
  N   2.16913171641990     -6.48722497163746     -4.62967516048374
  C   2.51496202905012     -6.03311998881596     -5.90009524940570
  C   2.27083001986793     -4.73616336074826     -6.13453793468365
  O   1.36035794158699     -4.07489668411842     -5.32564194493636
  C   3.25065800293486     -3.78278545842705     -6.69794572164051
  N   3.76236059056836     -2.97625942040349     -5.84728459818741
  H   4.44001177722193     -1.73604485214110     -3.35181867054387
  H   4.79631221978517     -2.27077017723519     -1.10834427986919
  H   4.19990301322072     -5.21933539497378     -3.79730966978039
  H   3.13409812168226     -5.66529348798830     -0.95399187497805
  H   3.76591898090605     -7.82956402194285     -4.54151122726059
  H   3.21231270479690     -6.58367582281441     -6.52978233651629
  H   3.58283534665177     -3.77549655861045     -7.73008919200878
