26
Coordinates from ORCA-job 14226optt
  Br  3.58469967944902     -1.10997857500054     -1.06722113310803
  C   3.55269829114097      0.33443353829899      0.12695275482712
  C   3.36656753085243      1.60534625800306     -0.26076585465706
  N   2.78804877019666      2.07794767030755     -1.47578186234387
  C   1.39229278818382      2.34354191454899     -1.26365430663113
  N   0.64774037025904      1.37495849748352     -0.95322525800825
  C   1.01676741106805      3.81243830087140     -1.34377678446369
  C   -0.37760186665820      4.21544540725673     -0.84718642180127
  C   -0.56714614592837      4.39585646128221      0.66015999114775
  O   -0.73020099076940      3.13622755653645      1.34146866195794
  C   0.35432055334908      2.51715867852444      1.78007211474468
  N   1.46522705243190      3.10141324789864      1.98719726229253
  C   2.55614238115100      2.23172773445985      1.93292591259946
  N   2.66174653805520      1.10385368120641      2.52171981236538
  S   3.62713788155831     -0.08217142576554      1.81857304948683
  C   3.43308790485078      2.64614033204463      0.78607439191742
  O   3.92412907249282      3.73597711723930      0.65384100334132
  H   3.27096609083538      2.92266288076143     -1.76475675349103
  H   -0.30774653373058      1.67967430286602     -0.78382782204026
  H   1.13490739950857      4.12316741107877     -2.38697872786389
  H   1.77291095309255      4.36598125335018     -0.77683327018076
  H   -1.14567298470853      3.53786613945271     -1.22937055221352
  H   -0.60322768739351      5.19088274844053     -1.28476243710783
  H   -1.49970674013620      4.92394835287161      0.84512307006044
  H   0.25707337439436      4.94829272419289      1.10747364676365
  H   0.19583890645481      1.44420779178972      1.89055951240606
