27
Coordinates from ORCA-job 14237optt
  Br  1.68017438785641     -1.96892113175034     -1.27123163982146
  C   2.78749593032935     -0.54193498139985     -0.79056879633214
  C   2.68122540738814      0.68259275802590     -1.33144040514712
  N   1.58611544178150      1.09881723369216     -2.16667409134838
  C   0.76720472996683      1.87226216758766     -1.29795335858983
  N   0.70080936353129      3.12579939187351     -1.37933128917231
  C   0.03624777158269      3.82867854380223     -0.29442142555890
  C   1.11026228411590      4.53187651646108      0.55064946720930
  C   2.02999967970276      3.50959013915732      1.17918415422304
  O   1.65557893879691      2.50494394627712      1.71604970691143
  O   3.34045125624063      3.81453096920617      1.03656820997880
  C   4.24926479471404      2.75590598187196      1.35483736430699
  C   4.00724590422883      1.60477831927925      0.41456583125374
  O   4.12814183332350      0.39180197417343      0.98332252113018
  C   3.74985143913994     -0.76372120198356      0.29896903218449
  N   4.15606751690557     -1.88828464062692      0.67809632323251
  C   3.48330819659129      1.76069572483547     -0.80048911278272
  H   1.92432555073142      1.71600886048430     -2.90128045740155
  H   0.30909894659141      1.28286195337841     -0.49874689884479
  H   -0.54408309203125      3.15710933865944      0.34653864925660
  H   -0.63291064370148      4.58371591644523     -0.70641760206332
  H   1.68945382227247      5.22179861644039     -0.05988627396747
  H   0.63088380447702      5.09215525532347      1.35633202010666
  H   4.09545803280047      2.40208851081232      2.37415563080486
  H   5.24280396714878      3.18833077692348      1.25707008447268
  H   4.77544064969699     -1.80472759785971      1.48159806818524
  H   3.35608408581857      2.75324665891006     -1.20649571222653
