24
Coordinates from ORCA-job 14234optt
  Br  2.52637013180808      1.78006488166875      1.71854189449354
  C   2.81791285235501      0.28319297532804      0.63611673450555
  C   2.67568771545069     -0.99601019880803      1.04266462592361
  N   2.09753076638217     -1.29575101061262      2.30111023438717
  C   0.61824916210837     -1.40243451510345      2.18012006806552
  N   -0.17293450297589     -0.56230780957821      2.65923384893905
  C   0.30912654593274     -2.66332700072476      1.46851573254887
  C   0.27497121022857     -2.83635022925065      0.14253155958130
  C   -0.06288844837331     -1.76335064906158     -0.83442530979050
  O   0.04996413999394     -0.58138223840608     -0.62960961932969
  N   0.74216139012308     -4.04804124368781     -0.42070569440728
  C   2.01710845898208     -4.19619702093111     -0.28512345356453
  N   2.80776534284061     -3.29232940831098      0.38211619181929
  C   2.86440050794773     -2.05467546072360      0.03920406542959
  N   2.94560270185038     -1.68504303746428     -1.29801506073864
  C   3.06960229366890     -0.44321584098251     -1.58811165330117
  N   3.09837789309359      0.55700818319380     -0.67510594099548
  H   2.45577447482746     -2.20356848048938      2.59196447847313
  H   0.34747273097196      0.18620362192699      3.11736662132875
  H   0.57309196679731     -3.54836377827553      2.04432884834452
  H   -0.41742922481548     -2.14649106274064     -1.80769741874146
  H   2.46275601112159     -5.13089326067692     -0.61354052104887
  H   3.15327104420819     -0.13013286836769     -2.62312467765383
  H   3.17405483547223      1.51739545207826     -0.97335555426844
