25
Coordinates from ORCA-job 14232optt
  Br  1.02185878760324     -0.11884210340286      0.50560395568076
  C   2.87340996548676     -0.24628012350785      0.19949404116768
  C   3.48868497231385     -1.44204365641020      0.26293065899150
  N   3.13032536066526     -2.72299071941073      0.51503789739244
  C   4.27776124286700     -3.54635660612311      0.44340467047758
  N   4.22876854483375     -4.78436965150627      0.65533367403054
  C   5.46162187728259     -5.54589598310366      0.55313015296064
  C   5.60082347641553     -6.12567670581091     -0.84643130363912
  C   6.79769639041996     -7.01862902010169     -1.00182319388672
  O   7.57234442680318     -7.27173792523346     -0.12123837336293
  N   5.38585591567922     -2.73363209308468      0.10771745750088
  C   4.91651384584750     -1.54915796838185      0.01362776831682
  O   5.63634746230288     -0.46581512416097     -0.29273354077721
  C   5.01126615265606      0.72974688294761     -0.34205935211515
  C   3.69372411924868      0.90175331608600     -0.11588631189917
  C   3.17415666229044      2.29317334175355     -0.19687416459583
  O   3.86184521179277      3.23774735614564     -0.47715079024401
  H   2.21815663811647     -3.06216195964988      0.77057438715011
  H   5.41778477503546     -6.36182996638318      1.27382776645210
  H   6.34247710043890     -4.94389894229001      0.78438392294191
  H   5.68192962281283     -5.32574545737642     -1.59101332844233
  H   4.71019542112269     -6.70055218744849     -1.12194901201824
  H   6.93874752013544     -7.45309356343136     -2.01127539660293
  H   5.67775838724466      1.54429260237800     -0.58087415116383
  H   2.10194612058476      2.41599625750688      0.02224256568451
