21
Coordinates from ORCA-job 14233optt
  Br  2.32332710381854      0.60158470934859     -2.01493531246322
  C   3.71471715412159      0.27713865767048     -0.82104286735922
  C   4.31308140100365      1.25238342220705     -0.11877486734137
  N   5.32072691476579      0.91717384821652      0.76771291238663
  C   6.09561776483194      1.81920647931459      1.50152262085262
  N   6.38785033826026      3.01747985084963      1.21691072676941
  C   6.01938396506444      3.64820213356503      0.02416014200961
  C   7.09854246708307      4.53120677691894     -0.52618259803937
  C   6.68538124423991      5.26414769056249     -1.78347305964652
  O   7.34836443898999      5.25804129765810     -2.77978587064953
  N   4.89424063521939      3.57207987072897     -0.56263507557088
  C   3.90927800592544      2.71313714316611     -0.10143232047654
  O   2.81930545734266      3.04319827476580      0.25223589147177
  N   5.56275159136154     -0.38818734748822      1.13241941331405
  N   5.03845195663301     -1.31064402139727      0.50276387193737
  C   4.18444126051613     -1.09428188791759     -0.64891537563920
  O   3.89567959369741     -2.03159500325566     -1.33019425822490
  H   6.49739266289511      1.35490607008409      2.39680027314352
  H   7.99395250546692      3.93873377046644     -0.72294568692386
  H   7.35859176997578      5.25903986733572      0.24967783114598
  H   5.73792176878729      5.82604839720016     -1.72488639069637
