25
Coordinates from ORCA-job 14238optt
  Br  3.43297294357165     -1.87776704687931     -3.55637179670713
  C   4.34167263587409     -1.54019684586917     -1.94285888260280
  C   3.71749983216026     -1.68561594559448     -0.73083541532140
  N   4.40446657090390     -1.21850319493101      0.36209149199669
  C   5.75303158603987     -0.84567512739301      0.33255890726807
  N   6.38743207147753     -0.18114006178237      1.19910557029576
  C   6.36928119837892     -1.49540133321602     -0.84832751635866
  C   7.19458268608197     -2.69554514387699     -0.66970374739078
  C   7.05488772253894     -3.36186570636449      0.48402990412258
  S   6.83221048322629     -5.10977214234636      0.57929614751034
  C   5.02351175873691     -5.03819477392217      0.82604423611129
  N   4.56313195697723     -5.71241194274747      1.78297129186060
  N   4.34176543646407     -4.22994952037328     -0.08468692253111
  C   2.97422109190987     -3.91135843685396     -0.07520221061599
  N   2.01067754307735     -4.67407439639553      0.21798649888106
  N   2.67919605505959     -2.57344540391845     -0.43042235313708
  N   5.68787108248479     -1.54664269521089     -1.95238586832733
  H   3.97152190156943     -1.37081672762681      1.26309698480108
  H   5.78323804626640      0.17133575517194      1.94029843460218
  H   7.45501153179563     -3.21021564836451     -1.58744362568383
  H   6.76898371279862     -2.82698170870115      1.38298527244373
  H   3.54857913686415     -5.66498633999935      1.85664523820430
  H   4.91519007742846     -3.76209237751535     -0.77178144461020
  H   2.30679796324596     -5.63963331064117      0.31411779550799
  H   1.77726497506804     -2.46404992464857     -0.86920799031935
