19
Coordinates from ORCA-job 14249optt
  Br  1.27295496249543     -0.59643075065637     -0.17139522945089
  C   3.09742444902541     -0.20912324177190     -0.16127483063864
  C   3.62355379687044      1.03381325868301     -0.10690776408254
  N   5.02546882057247      1.17506783472573     -0.14186314680401
  C   5.60292142656151      2.36504998757584     -0.48156987006166
  N   4.98304595581754      3.47826376539870     -0.59559973739799
  C   3.64768089668994      3.45657421312569     -0.27083818349856
  C   3.01693324238606      4.74790325199216     -0.20161129732444
  N   2.52778590360428      5.78224858762911     -0.14568220295714
  C   2.93799868901817      2.32034357535977     -0.01880753808351
  C   1.57041316696993      2.45008487538728      0.37375035947346
  N   0.49753437000660      2.66026293128647      0.71970124235074
  C   5.86706234016468      0.05108147990178      0.11905791735341
  N   7.02450561600791      0.08522374531074      0.58289340635385
  O   5.33067828498485     -1.12971943227468     -0.23053728045896
  C   3.97018283755177     -1.37637170962623     -0.33318502376211
  O   3.62477290278721     -2.48651670403137     -0.55602019819977
  H   6.66799887116337      2.32151674927554     -0.67745840409660
  H   7.34108346732238      1.00872758270870      0.85534778128535
