22
Coordinates from ORCA-job 14251optt
  Br  1.05912280727775      0.09733621220559     -0.42930433539783
  C   2.92272806836602      0.12469793874708     -0.17816799216442
  C   3.69153777367248     -1.05022395832978     -0.13884436970502
  N   3.13485687934660     -2.31715358883008     -0.25700745728869
  C   3.85583139203823     -3.39676523398264      0.20871955920029
  N   5.10271965636417     -3.42122823217475      0.42271984470619
  C   5.86541923047279     -2.23601230844989      0.03202262454367
  C   6.39987967953703     -2.43991632735896     -1.33247384284607
  N   6.78755692734197     -2.58295646491080     -2.40085363202552
  C   5.06102797285515     -0.95396600846981      0.06892407318219
  N   5.71051430962427      0.20215835168518      0.26369512727631
  C   4.97603944980366      1.26432769268248      0.21141361360768
  C   3.59525853965687      1.30539399807514     -0.01576999356000
  N   3.24588676653556      2.63073098373354      0.01088905272346
  C   4.38399296468606      3.40925138822032      0.23796115994486
  N   4.55350454701243      4.64548650381361      0.32703784223823
  O   5.43740330474682      2.53726316195613      0.37055441989372
  H   2.13098728042453     -2.39256688939354     -0.30717066651445
  H   3.26162430357449     -4.28121407254091      0.41751682157542
  H   6.72173151541738     -2.12811855792372      0.69887142567907
  H   2.32945573516520      3.00967569564997     -0.15431069459391
  H   3.69192089608046      5.16679971559585      0.20857741952482
