26
Coordinates from ORCA-job 14256optt
  Br  1.37936886465235     -0.55548617461973     -0.20013080220580
  C   3.25077769774463     -0.34656803952436      0.00484272739573
  C   3.81211409844032      0.94417282040862     -0.08361745666906
  N   2.95273330389948      2.02104595328113     -0.21102775300248
  C   3.15708588704414      3.15726361030981     -0.74527742807121
  N   4.23398956908946      3.67227642490701     -1.40556616759125
  C   4.17582819138147      5.03666092995287     -1.87813658571353
  C   4.98196311641257      5.94013788942771     -1.03367345400320
  N   5.63596469024909      6.60407539104954     -0.36760292106990
  C   5.54167278727974      3.02644480765734     -1.41805320796785
  C   5.86756481813773      2.36228127968490     -0.07626660557052
  C   5.20023839667441      1.03007343392173      0.05339711475878
  C   5.93450456928135     -0.14397665793185      0.26816664175430
  C   5.25111379190506     -1.35399143775908      0.34296886022382
  N   3.93549186305517     -1.44443839416001      0.20399627489347
  C   7.35713055390290     -0.13536330756808      0.41459327422329
  C   8.55014936446691     -0.15006007478710      0.53792918764083
  H   2.32115953152745      3.85525089505078     -0.70874415009762
  H   3.14390879937845      5.38439009848474     -1.88113402496222
  H   4.54846731303369      5.10793535051193     -2.90219098946851
  H   6.28159466601874      3.80119156024139     -1.62365417049653
  H   5.59629187722543      2.29247634570901     -2.22488726935623
  H   5.54633131835278      3.03157303383781      0.72702334787983
  H   6.94595948524651      2.24184605503149      0.00769624961410
  H   5.79175110811312     -2.27545103774648      0.51998612805318
  H   9.60784433748699     -0.16976075537116      0.65136317980858
