28
Coordinates from ORCA-job 14259optt
  Br  2.55857469193225     -1.74894336356606     -1.63437606153706
  C   2.66290451000402     -0.27781635572779     -0.47197445657676
  C   2.07118191440818      0.94970818895585     -0.79605428534789
  N   1.30692745342714      1.15719036213972     -1.91827616015085
  C   0.27006708135086      2.11861736560212     -1.85171503791765
  N   -0.30135583590429      2.30099612056783     -0.75556717652165
  C   -1.03507190274745      3.50337386384080     -0.47423559595146
  C   -0.07859309845806      4.47798698729396      0.24084030192895
  N   0.55970031863777      3.91329791267870      1.41899267452138
  C   1.97881146358843      4.18740003217624      1.61774156677365
  C   2.75030364049253      2.98015390182751      2.15031775593904
  C   2.77588105420578      1.81094702830099      1.20086244874395
  N   2.23800248028663      1.98832130356043      0.01114889950288
  N   3.30971365490211      0.66518807921133      1.63273726454829
  C   3.28473377770156     -0.34535086437222      0.76912377611771
  C   3.90523970565629     -1.57966098569613      1.19968662270717
  N   4.39449424344261     -2.56200431160410      1.52844766550898
  H   1.29962105783170      0.44619101931541     -2.63288511522292
  H   0.10122371516820      2.69022281216423     -2.77050860562687
  H   -1.87465134378888      3.25567955141292      0.17695513242607
  H   -1.42086327687011      4.00078187960887     -1.37596468625965
  H   0.70377602613106      4.73195139177254     -0.47717903754081
  H   -0.63097386908680      5.40174474736055      0.45461264985610
  H   0.02629576109697      4.09281117964463      2.25678550442284
  H   2.14931492454703      5.03003118504516      2.29823935092585
  H   2.40645221897051      4.46789843019365      0.65542344231028
  H   2.31405586243219      2.62379707455118      3.08699663445042
  H   3.77923377064177      3.26548546374164      2.38682452796999
