25
Coordinates from ORCA-job 14255optt
  Br  1.23571479736199     -0.20744230870369      2.07528379074733
  C   2.36806262482719      0.35528334134760      0.67719939430860
  C   3.25895141389493      1.37291892461057      0.88343626684635
  N   2.91472709170821      2.31937467525302      1.82846761536348
  C   1.58480368783735      2.85894373427396      1.74033507404316
  N   0.96153379224242      3.36661433855075      2.70642978024534
  C   1.09162813246593      2.95205010202830      0.32931058415089
  C   0.35614874431681      2.15186561239602     -0.45994337593741
  N   -0.46622959367217      1.04943313384178     -0.21787449476590
  C   -0.20084977993792     -0.12091707885199     -0.66992764095550
  C   1.06606661469418     -0.58636176009736     -1.20506549279507
  C   2.25000676632067     -0.20050011495829     -0.64781465429608
  N   3.46646066554975     -0.24175396938746     -1.31715481240934
  C   4.49906122997418      0.58608864750380     -0.99692902411443
  C   4.40722373014343      1.45887671036226      0.03395656527221
  C   0.31403934838502      2.55311708912179     -1.85580836032466
  N   0.29584179429918      2.84764631221984     -2.96490583349685
  H   3.62004733692884      2.89720154130366      2.25875290819261
  H   1.47223959164909      3.24522081882058      3.58157450890130
  H   1.53896540266406      3.79998001067626     -0.17992674043376
  H   -1.03236525157984     -0.82465853800998     -0.64472434793062
  H   1.05147869385347     -1.21912071559364     -2.08491959024555
  H   3.48238535652192     -0.69759367299996     -2.21670830370192
  H   5.36530615541351      0.52812751271415     -1.63957604793401
  H   5.18775165413777      2.18160565357801      0.21853223126984
