21
Coordinates from ORCA-job 14250optt
  Br  0.85709759931574     -0.34659646046783     -0.21624806030180
  C   2.72759350065085     -0.19779085702219     -0.09134969831431
  C   3.51918020413432     -1.29949231550663     -0.00567955976131
  N   2.99424806169096     -2.58330213914142      0.00760672246404
  C   3.78977558974952     -3.57370403465981      0.08253933602833
  N   5.15789579426519     -3.46166190720397      0.14431835000945
  C   5.73990037248649     -2.22627578705245      0.13358494702642
  C   7.17522536067644     -2.25101884544348      0.18783222574976
  N   8.29743180898629     -2.48079412715056      0.22938688034124
  C   4.96411976914703     -1.11418068766989      0.06777398500654
  C   5.59488606603028      0.22626374015374      0.05335381659268
  O   6.80019180101797      0.38711246458228      0.07288114935377
  C   4.63297124159149      1.31768468090874     -0.00416245509236
  O   5.15432332369859      2.59056006394984     -0.06382535514067
  C   5.82932118316823      3.01426995577500      1.03498599635584
  O   5.82381268250086      2.47320933402092      2.09109593295317
  C   3.30170256279766      1.11064816550541     -0.07997544350352
  H   3.40741645263464     -4.58774507432987      0.10080151625697
  H   5.73906904748457     -4.28419131849458      0.20338151497803
  H   6.35124912730438      3.94455034011067      0.79132200715978
  H   2.64458845066844      1.96945480913609     -0.13162380816205
