24
Coordinates from ORCA-job 14266optt
  Br  1.30088270503803     -0.00352848360467      1.07386594012051
  C   2.99698168016902      0.51022728831274      0.44561834430774
  C   3.75127653655291      1.42159298164072      1.14345298426696
  N   3.15191735790871      2.34519464400688      1.98627287833018
  C   2.03739955388469      3.14990638763080      1.50487364585814
  N   1.16842617963504      3.66179932411972      2.26018342548571
  C   2.09423417052976      3.19570597626921      0.03429699432767
  C   1.24794605716914      2.52556140388973     -0.77953473465697
  N   1.93345102006623      1.77458759579759     -1.71386607175129
  C   1.64810044714593      0.52093784777716     -1.88187383345676
  N   2.70691889324501     -0.35785952123404     -1.83560684682688
  C   3.46915228433205     -0.02203599282559     -0.82628468539388
  N   4.83440472302161     -0.14680417598003     -0.87990705969481
  C   5.65939518445980      0.53875426303300     -0.02542198837707
  C   5.16742760180889      1.37279489858221      0.92634784744647
  C   7.06695610183538      0.37554184964788     -0.23367070985563
  N   8.19129890037656      0.23988101526632     -0.41286445437082
  H   3.68850314099048      2.72792894920735      2.75027149721339
  H   1.28489589400742      3.36127062702465      3.22728846332419
  H   3.10158320435634      3.27124582594173     -0.35570995731914
  H   0.21591256184480      2.30929845602540     -0.50625850517748
  H   0.63587465107177      0.11461629872584     -1.96513345504650
  H   5.21541363005401     -0.54581074336696     -1.72850033635371
  H   5.84464752049637      1.96319328411232      1.52616061759999
