23
Coordinates from ORCA-job 14275optt
  Br  3.26232940458771     -0.61994526431309      2.18783267382310
  C   4.25537659250391     -0.25161052157788      0.66518321020668
  C   5.48346807082283      0.28523018894511      0.61924413873335
  N   5.98209880424647      0.44323036190069     -0.70521129156873
  C   5.84452872898339     -0.76866834459227     -1.38534527910677
  N   6.75851940844797     -1.61576447033219     -1.64569518763522
  C   7.93395395255161     -1.43772648722853     -0.88935375150362
  C   8.80324350682248     -0.42964777365062     -0.85884285239616
  N   9.53205206109998     -0.21724904644046      0.33489231244114
  C   8.90404721705673      0.22208108434235      1.50212253669263
  N   9.33665094719647      0.22414752212601      2.67690951371051
  O   7.67958739841220      0.77915688435165      1.19044536855951
  C   6.46934614011708      0.38089196519865      1.73520117298706
  O   6.29035909832067      0.12968072681223      2.87746122820513
  C   4.39137044170579     -1.08319090879314     -1.55502291692589
  N   3.79811641487093     -1.69002597761073     -2.46548190736709
  O   3.63417806120192     -0.59857111158659     -0.48978933394066
  H   6.92660137353997      0.79278305274426     -0.69418787686721
  H   8.01566271821910     -2.19381859440403     -0.11071738685264
  H   8.86706323945792      0.31642955091831     -1.64646557705009
  H   10.53534952087144     -0.13426806078072      0.32003916884466
  H   10.22415416704602     -0.26565242822775      2.75037556848232
  H   4.46494273191734     -1.99049234780124     -3.17459353147200
