26
Coordinates from ORCA-job 14274optt
  Br  2.34991595455616     -1.18293777451634     -1.20850165760785
  C   2.73336428250359      0.42419339978739     -0.33714940414859
  C   3.23970689956546      1.52116295261114     -0.89699232415464
  N   3.05825122435940      1.83573408441555     -2.27865813675223
  C   1.67046602476774      2.24862127542198     -2.16828986175217
  N   1.34013013692804      3.41843481530787     -1.86934771354353
  C   0.01701422099745      3.63820938218575     -1.30193197091594
  C   0.22165232813052      4.38229258247447      0.04749248243329
  N   -0.48041549245876      3.85650792891279      1.22018357263424
  C   -0.32477000335388      2.78876061616242      2.06555511885275
  N   -1.02793131516272      2.54698243372326      3.09872783457255
  N   0.56921074801299      1.73043798616583      1.74413606296980
  C   1.82331668717606      1.75483769106658      1.26039915313665
  O   2.25045384468608      0.47954727128638      0.94673644980882
  N   2.52533601861462      2.79206369008463      1.04084950528952
  C   3.49287932255109      2.67245225888981      0.04480714369366
  O   4.37202511442982      3.46624767215831     -0.14320013397116
  H   3.63527911429553      2.64367125098031     -2.50473501935630
  H   0.98679995024337      1.39401507690944     -2.16409185702446
  H   -0.52431600642263      2.69866461670574     -1.13648372138126
  H   -0.57546788746794      4.25709457847152     -1.97606629190177
  H   -0.15002079682271      5.40012257674597     -0.05491246656742
  H   1.28593886277495      4.45347656830458      0.24169799766145
  H   -1.16871941846281      4.49004668731388      1.58928972703785
  H   -1.74380557822791      3.24967741733122      3.25692641546534
  H   0.25770576378646      0.85468296109945      2.14255909552140
