26
Coordinates from ORCA-job 14285optt
  Br  4.65956796472882     -0.32237900745536      3.49282724870170
  C   5.35963860426871     -0.86470539864460      1.84932847718972
  C   6.63802074325551     -1.29768230222248      1.69571446319955
  N   7.04608188597717     -1.72082757001477      0.43625423165686
  C   6.39169249675953     -1.35308392199560     -0.59934510053005
  N   6.98482764866070     -1.39251656438363     -1.81010736967863
  C   8.42002870555661     -1.65249931188630     -1.89971038578418
  C   9.28508697746525     -0.47047595515302     -1.37297353799483
  N   10.51450441545615     -0.84815307492327     -0.67339251811841
  C   10.59843667394166     -0.96136213181564      0.71190853054687
  O   11.59868274353606     -0.74050988612590      1.34614188017862
  N   9.39025461184797     -1.38388426144070      1.23005580636167
  C   8.84045876482805     -1.24460026546233      2.47206991315935
  N   7.57524701635340     -1.26490094376440      2.71906458135811
  O   5.15506549941195     -0.86208426914152     -0.56827964321933
  C   4.48857258775560     -0.76492090484233      0.68440639847254
  N   3.25615877472111     -0.54064250253550      0.69576194652384
  H   6.44302068625802     -1.14960712782193     -2.62148508539862
  H   8.64767578818878     -1.85759018243025     -2.94358215252689
  H   8.65559601486057     -2.55646210329102     -1.33704402349777
  H   8.66136180555556      0.14205584699582     -0.71828280052290
  H   9.57139040161099      0.16201953114916     -2.21181015463010
  H   11.37931224678924     -0.51417468654492     -1.06862144085126
  H   8.66005603362343     -1.64878999370290      0.56151584554413
  H   9.53548049250571     -1.09883815393497      3.29402586550797
  H   2.87478041608331     -0.47138485861162     -0.24444097564796
