22
Coordinates from ORCA-job 14284optt
  Br  5.95759835342650     -1.16007570150286     -1.17588059201475
  C   4.77795674086401     -2.17989710453719     -0.12997869828617
  C   4.31632285286575     -1.72123976676488      1.04855400279224
  N   4.79633344985175     -0.63157383745424      1.76416196628165
  C   5.83040587804465     -1.10563141931403      2.75347195611378
  N   5.70136917669759     -0.90332710317948      3.97729891196017
  C   6.96288314454927     -1.78677227388883      2.06817526754977
  C   6.79142701018490     -3.01216184786794      1.57912415350993
  N   7.55706223019135     -3.61110019319019      0.57100510285007
  C   7.00220310463448     -4.08922747052039     -0.61558835414943
  O   7.66414462681330     -4.28674055646384     -1.59436996294128
  N   5.63122840121713     -4.43585213895236     -0.54173599016287
  C   4.68693204393739     -3.62706430071675     -0.35131677773573
  S   3.05487494652216     -4.31183209795532     -0.10378874834541
  C   2.61258177090722     -3.41478539177295      1.35431327194805
  O   1.63255402831002     -3.67380888546096      1.96359733039120
  O   3.46718798030432     -2.44845760425759      1.82816833622997
  H   5.25185541851260      0.01345827585790      1.12318639139304
  H   4.82322364783301     -0.41831286320478      4.16903523424808
  H   7.78524652777734     -1.15969877593480      1.73914895884980
  H   5.95008118109062     -3.61440722831686      1.90354949624057
  H   8.49752748546455     -3.26949171460162      0.42086874327729
