28
Coordinates from ORCA-job 14280optt
  Br  1.98231270645991     -1.91574365070243      1.86557449285100
  C   2.41051230906683     -0.45008329631990      0.78623704471441
  C   1.54836069384835      0.54197173577489      0.48073970052537
  N   0.24679156304078      0.69762354869927      1.03126190175269
  C   0.28409302097597      1.73220026264713      2.03853851439553
  N   0.17969355811275      2.97858272805190      1.89863454406810
  C   0.07494478851681      3.60666616356647      0.59568886462174
  C   1.39836949770097      4.34663793142028      0.28477758994472
  N   1.62136562032209      4.48852919337250     -1.13971468794511
  C   2.43712035408095      3.76969109370814     -1.96242825245594
  O   2.30055976791957      3.80817883444643     -3.16725389325244
  C   3.60502062717763      2.97978771096596     -1.37118397583247
  C   3.20473818507322      1.70686141455750     -0.68366139021987
  N   1.99222966296212      1.57629796283518     -0.30247109588264
  C   4.22928350538972      0.68760676339581     -0.37187805990834
  N   5.47144031526054      0.68233721366751     -0.64256584063610
  N   3.68994685982706     -0.39416175519385      0.31868372222944
  H   -0.39685137122846      0.94958092441575      0.28866801977409
  H   0.46035682822146      1.33718011522583      3.03740884438843
  H   -0.74085377672021      4.33063603957269      0.63978918243268
  H   -0.11790077150272      2.91551548314074     -0.22520714704501
  H   1.38843576415575      5.33268695154746      0.75113586584977
  H   2.22667106857393      3.79466647641997      0.71922526616106
  H   0.91238911087151      4.98232349033243     -1.66496125206610
  H   4.16248089521208      3.59307394091954     -0.65288053943538
  H   4.26958261803849      2.77377341549287     -2.21043612088970
  H   5.74679335059535      1.50811049487577     -1.16313112730701
  H   4.34111324804752     -1.13053118683588      0.55440982916707
