22
Coordinates from ORCA-job 14287optt
  Br  4.69536948259013     -0.89879342891922     -2.97503848624055
  C   4.99644415481291     -0.45514804157879     -1.19388287817451
  C   6.11581010087377      0.08802384128647     -0.71881476142875
  N   6.16706461406131      0.20838563636781      0.68675073650008
  C   5.71422200984081     -0.95877229515933      1.30912435036614
  N   6.40508871426375     -1.87195805557616      1.86085890355530
  C   7.77060927409388     -1.86104002337532      1.52565377660798
  C   8.62555081368700     -0.83940400890363      1.54924662154222
  N   9.83094377067954     -0.81390370964351      0.81741654272175
  C   9.81023384514724     -0.80684865927226     -0.43362444361460
  S   8.39912217832229     -0.91472343229839     -1.63502973682160
  O   7.70129780175780     -2.13740870946164     -1.40219720065126
  O   9.02538524431079     -0.61159479561026     -2.88341215435125
  N   7.32406129365004      0.35633079221380     -1.38681412292203
  C   4.26008827591974     -1.17140669250399      0.97214292111884
  O   3.39957379545958     -1.60565450251282      1.64923690963215
  O   3.98476513159930     -0.76935564872146     -0.33536879799879
  H   7.04387185367516      0.57916983622769      1.00608637631763
  H   8.06817136515131     -2.79167515329961      1.05428759117003
  H   8.48115948050730      0.03675459127786      2.17293932745428
  H   10.72695640453360     -0.77236587950217     -1.02074240909587
  H   7.28121039506264      0.92138833896495     -2.22881906568720
