25
Coordinates from ORCA-job 14291optt
  Br  1.77719428099319      1.79895403918544      1.29260335911239
  C   2.84617470252341      0.40786679213573      0.61094895110463
  C   2.47136152144154     -0.88367202507919      0.78622976677924
  N   1.38529066683862     -1.36401518489623      1.50642819061408
  C   0.44274257995125     -1.85166300902284      0.80933706208598
  N   -0.47405182903081     -2.76218966368222      1.26689554381951
  C   -0.45446787397625     -3.98997536258658      0.44527226752009
  C   0.93682136593063     -4.61212082894884      0.52183794395361
  N   1.14723668249517     -5.60758707903172      1.25501546012053
  N   1.94246376098414     -3.83102221074145     -0.12335725183811
  C   2.97145683366432     -3.27898977559089      0.62155916238132
  O   3.52147355140524     -3.81574046098775      1.52562457208515
  N   3.26646841002650     -1.89172540454843      0.24670002395133
  C   4.45888404913636     -1.68151441223134     -0.48101118820642
  O   5.05697776207054     -2.63600292841749     -0.93002744302141
  C   4.81283596896825     -0.28589259761574     -0.62304796032995
  C   4.04275185432321      0.69594818401291     -0.10213543127619
  H   0.34571303203640     -1.64702340899404     -0.26259518694339
  H   -0.31651026620458     -2.97325791453093      2.24841415345886
  H   -0.72558773100639     -3.72764819088982     -0.57975555861235
  H   -1.18002184724371     -4.69691780434688      0.83472767986778
  H   2.13709740247096     -5.85049296390924      1.29314269894605
  H   1.63927722069693     -3.26533600432311     -0.90054508144469
  H   5.72334346612150     -0.07539678643572     -1.16416245802205
  H   4.32707443538357      1.73341500147642     -0.22509927610600
