26
Coordinates from ORCA-job 14297optt
  Br  0.88783343439919     -0.27020193235910     -0.17928567312188
  C   2.76102971515219     -0.10658927243088     -0.09490879876355
  C   3.55138438173778     -1.21353886373786      0.16466374581015
  N   3.02934764006617     -2.51405905292838      0.42740904062025
  C   3.31346625883255     -3.42902058799977     -0.64068089883946
  N   2.60893907395155     -3.54960352864342     -1.67037581330151
  C   4.64056614458947     -4.12951271671497     -0.47688847751771
  C   5.76689246634399     -3.08891916412426     -0.62727397160039
  O   5.75026767475176     -2.08878797983089      0.38441896736904
  C   4.94131311028799     -1.01441615145299      0.15464793788803
  N   5.52679012345548      0.14511262562189     -0.02556486479630
  C   4.73971227360473      1.20077291985591     -0.23572605824075
  C   3.35992317015395      1.13047689612258     -0.29718775454746
  O   4.78361604083621     -5.12370092940306     -1.45960160302617
  C   5.71918481563039     -6.12446899937408     -1.17483319451470
  C   5.35321017131539     -6.92113423017003      0.01427367268045
  N   5.07331228964767     -7.52201502223970      0.94828898550779
  H   3.42781332147986     -2.85285604838396      1.29852575403844
  H   1.77640010966539     -2.96199441281756     -1.59172567144802
  H   4.68691086702111     -4.56394858986307      0.53170559988118
  H   5.69362967166423     -2.63549932691898     -1.61920063375338
  H   6.73544267370494     -3.57843396172330     -0.53593371362256
  H   5.24087722488255      2.15126495937884     -0.37613197420641
  H   2.76512873649111      2.00960822683819     -0.49625218575824
  H   6.72769135310626     -5.72974401186100     -1.01660545985358
  H   5.74531725722772     -6.78279084483994     -2.04175695688323
