21
Coordinates from ORCA-job 14306optt
  Br  1.13755162359662     -1.66228057462793     -0.41264341014037
  C   2.55909128289285     -0.45289516590513     -0.53540912778953
  C   2.43580903067670      0.82562655130601     -0.14023919106301
  N   1.33567745703639      1.49667761055905      0.25682304207632
  C   0.14741406633401      1.35525203618112      0.64497770892077
  N   -0.60232348517399      2.54193160201496      0.82542484232938
  C   -0.10294843670563      3.55362593770671      0.23888394398118
  C   1.08944315008450      3.51315746159372     -0.71615717988548
  O   0.87997724241065      3.37429824983306     -1.89540883411629
  C   2.44272936558389      3.88090861709127     -0.18816552867849
  C   3.48768252336441      3.06016745709293      0.00755046630327
  C   4.72706584327006      3.69144792074177      0.39675798214768
  N   5.66404559899339      4.28256071347382      0.69067276348132
  N   3.58604685070794      1.66951002079455     -0.17780726024655
  N   4.79793032212140      1.14013348262763      0.23535069823322
  C   5.08778495991715     -0.03155653967053     -0.12330327587035
  S   4.07804488713855     -1.06649348024415     -1.14667412315978
  H   -0.36023083570378      0.42781613085587      0.89334751459288
  H   -0.57826571283542      4.52342722161765      0.37946812379289
  H   2.62185127619953      4.93628350608291     -0.02252045165077
  H   6.02962299009076     -0.44759875912534      0.21207129674169
