23
Coordinates from ORCA-job 14302optt
  Br  2.52224691794169      2.33088642455704      1.14911774263586
  C   3.90285424713488      1.16884804614074      0.61978370376122
  C   3.79487171657895     -0.15902546988197      0.83730013528741
  N   2.76981543320020     -0.68663814592609      1.63769580016657
  C   1.72275279264484     -1.19247668652558      1.15014456644164
  N   1.45497276496010     -1.32628744192059     -0.21487048683027
  C   2.24017765006020     -2.06208727944321     -0.87127002199037
  C   3.33976821798339     -2.91678541661778     -0.25532256169299
  O   3.12336320275016     -4.08431073515398     -0.08519273513246
  C   4.69718472125827     -2.30073327115057     -0.04899755272048
  C   5.74272979339512     -3.17860739669067     -0.45156968934921
  C   6.56140813491417     -3.97632227517054     -0.81652133572108
  C   4.88978409260386     -1.01867210181703      0.35922548590474
  C   6.23483927909522     -0.36552361179221      0.23973159266572
  N   7.36561242250189     -0.92269890639724      0.40103248641916
  C   6.20483902803188      1.05849844686100     -0.11443741394122
  C   5.08918294562884      1.77600473168898      0.04252299195569
  H   0.92971143151997     -1.52459097329000      1.81466675961653
  H   2.10457215288876     -2.17218826891142     -1.94660911565134
  H   7.29723358116129     -4.67744607930555     -1.13243236637347
  H   7.28222330429380     -1.89200161830367      0.70090165048422
  H   7.14145234708152      1.49649505131594     -0.43069118149690
  H   5.06240382237089      2.83466297773441     -0.17620845443898
