26
Coordinates from ORCA-job 14303optt
  Br  1.58425605907365     -1.15353319966818     -0.85330663937947
  C   3.34450763153867     -0.66133047978489     -0.40855571635909
  C   3.70599000948740      0.63402682867498     -0.34828130379695
  N   2.96427093808281      1.77318809101062     -0.49684700421392
  C   1.84831795329189      2.17738414976202     -0.04428063056402
  N   1.76237701210022      3.50989251976551      0.16137107643452
  C   3.00274673382789      4.28126018505837      0.12784661497881
  C   4.08171768548380      3.69268052603772      1.07812966751673
  O   5.34426414441132      3.38840858911399      0.51397988439010
  C   5.50615666647275      2.42852925156548     -0.52349668304503
  C   6.90679397392526      2.50668044452447     -0.94179610273149
  C   8.02905791616771      2.58705464384257     -1.34568942919277
  C   5.13067580059097      0.97425706474153     -0.14999450256500
  N   6.04956440564502      0.19029333801452      0.25434101714764
  C   5.80719389406174     -1.13731216264470      0.59296950109922
  N   6.56120375353323     -1.84254165462908      1.31772260882315
  S   4.40917409184390     -1.99397352437928     -0.11674456777691
  H   0.98757078072578      1.57248859889102      0.25060559711602
  H   0.90145750540550      3.93233927048957      0.45904171595151
  H   2.75344335839788      5.29906545907262      0.42142725979884
  H   3.39960028894855      4.31671194120485     -0.88811732551628
  H   4.33302073610865      4.44123632286131      1.82909469397795
  H   3.66886717871273      2.82887620479075      1.60275822376914
  H   4.88592322580453      2.69767465620771     -1.38045006550479
  H   9.03256344457291      2.64961771130479     -1.69250803540340
  H   7.38328481178513     -1.29497477582833      1.57578014504549
