24
Coordinates from ORCA-job 14308optt
  Br  3.16171582023218     -1.27089770630604     -1.45351087611458
  C   3.45656801732356      0.10928924668652     -0.22986355591701
  C   2.60718393906590      1.15130996446899     -0.08234069623892
  N   1.48069528555024      1.36387180141714     -0.77799833826269
  C   0.53175316112632      1.07252670905017     -1.53310961752657
  N   -0.45430590249302      2.05060388512625     -1.77114023535838
  C   -0.47162343835018      3.05477245696411     -0.78361992291417
  C   -1.61246832620442      3.05646223017505      0.13824725526559
  O   -2.59952084083288      2.38747582384023     -0.05587564321665
  C   0.71048795886508      3.65554529116818     -0.55600913320784
  C   1.24750542672058      4.09900803898881      0.75058299939127
  N   0.84175077846067      5.09887983290252      1.43237411743547
  C   2.38762069274273      3.32693701111390      1.28391771778965
  C   2.97729691220615      2.15206978571622      0.94332785310636
  N   4.10271149450047      1.83883717145820      1.76194652336413
  N   4.84241150788146      0.86414804315156      1.56054439032443
  N   4.58762062552488      0.02627626812633      0.52765844076088
  H   0.34564643991127      0.12479295512294     -2.04395811513421
  H   -1.35909881449420      1.69095136256072     -2.04714701738091
  H   -1.52866228395655      3.72774780304299      1.00859531683064
  H   1.43859370769805      3.62539217163906     -1.35650251851075
  H   0.08892617911712      5.58278300731899      0.94430585964569
  H   2.84058221239271      3.81398856061145      2.13930735011541
  H   5.21560944701183     -0.75777171434434      0.46526784575317
