23
Coordinates from ORCA-job 14309optt
  Br  1.26519168473215     -1.12964090463580      1.37750277594171
  C   2.70325770892657     -0.22805665889459      0.57020048177134
  C   2.57227812546323      1.00868087794462      0.02902132626930
  N   1.28224671123677      1.58341275474036     -0.02342814131679
  C   0.84634060891283      2.91278440485889      0.20194792054653
  N   -0.30856688605661      3.26964751085073      0.55354146190655
  C   2.02404737197615      3.78925049923931      0.01384709052561
  C   2.66800426036195      4.40116993973408      1.20529958880468
  O   3.64729927675015      5.09089957965647      1.11944089899153
  C   2.69380699070583      3.48945524716741     -1.10688534721071
  C   4.03762978617090      2.92651784550298     -0.92034523305434
  N   5.21367080173607      3.33152720557392     -0.91877555278218
  N   3.74401635632300      1.53673736401767     -0.57393238872867
  N   4.81309106680239      0.72283587490581     -0.87914776159543
  N   4.90742487316304     -0.41744527449077     -0.42724111741089
  C   3.95701705093425     -0.94504196481615      0.50095881402135
  N   4.21446665088889     -1.99145320727280      1.16122868146272
  H   0.58926741301297      0.88678590124732      0.22650461220326
  H   -0.94756236090479      2.48692674596640      0.69337302477262
  H   2.17633487114731      4.20513147708255      2.17271277585627
  H   2.14267534638413      3.03362706614844     -1.92366478746847
  H   5.24936668152515      4.31434553611753     -1.18071967272236
  H   5.14269560980761     -2.33209782064442      0.91156054921638
