21
Coordinates from ORCA-job 14319optt
  Br  3.21555563079127     -0.50255512521227      2.23359628373495
  C   4.46197662069562     -0.35188678556436      0.87114443856257
  C   5.65862781711992      0.26497984371915      0.93139735864863
  N   6.44350849910842      0.22964256027845     -0.17151388882625
  C   6.23075939408881     -0.48638884184560     -1.19688279914733
  N   7.29234372614438     -0.73222555285613     -2.05847363044037
  C   8.52444517820452     -0.78161844208076     -1.34223875127736
  C   8.84562753211283      0.31604682589201     -0.65992840953210
  O   9.43527626858614      0.24626695845859      0.59880306471682
  C   8.47634038469273     -0.01134831980717      1.55352907897844
  N   8.31199896523339     -1.10016002742679      2.14224986175549
  O   7.71464352164509      1.07425451029070      1.86069749772043
  C   6.34993726529577      0.87325495650910      2.11153400196556
  O   5.85358712442541      1.24089945409904      3.11806365506661
  C   4.92209490656451     -1.14407727794733     -1.36977163811989
  O   4.54935521902445     -1.76868781237726     -2.30895144659813
  O   4.09194126764167     -0.96482037603045     -0.27349185151631
  H   7.10527244682958     -1.39123971489754     -2.79998724414959
  H   8.95895585891134     -1.80179617582263      1.79319386285433
  H   8.90321094577861     -1.75981506622579     -1.06517149756910
  H   8.51454142710545      1.30327440884707     -0.94679794682740
