27
Coordinates from ORCA-job 14322optt
  Br  4.78928145942592     -0.61222196826535      1.03974478459523
  C   3.01203069571517     -0.55264117356224      0.39977873618853
  C   2.51251147903800      0.64276668284809     -0.08463753681653
  N   3.24973955575417      1.82374973139551     -0.30159680590377
  C   3.35143762748180      2.73801258390323      0.78008568273933
  N   2.65804936115344      3.77606283690318      0.93380550837805
  C   1.50190106347191      4.04294921478694      0.07478007670753
  C   1.83407060988838      4.58569789828427     -1.31355229511870
  O   2.54529808487238      5.82302543590835     -1.22757090737209
  C   1.80714204339229      6.90956540100685     -0.99920126323232
  O   0.61861767174906      6.92719398878440     -0.86915280059348
  C   0.44178046277943      2.92202312537528      0.02959746816258
  N   0.57615439162375      1.79916241943235     -0.92843631411696
  C   1.16868615218852      0.61913240254408     -0.48537983774264
  N   0.46187554548287     -0.50505707664144     -0.50552663061770
  C   1.07438564072074     -1.59334355320130     -0.05693687714931
  N   2.30530483849200     -1.66523507954880      0.43427294227209
  H   2.82997784635404      2.28412814993168     -1.09917019663823
  H   4.12231650505175      2.49373757785138      1.50702402384616
  H   0.97509798259955      4.85692558804336      0.57682565595789
  H   0.90554851096570      4.73990253161332     -1.86521269019485
  H   2.48475487559352      3.94061569602775     -1.89816991712135
  H   2.45361622615929      7.79305961588641     -0.95631741653936
  H   -0.49510112398726      3.41367369957359     -0.23295790121754
  H   0.33112293430983      2.53761545933117      1.04766562252038
  H   -0.32448807940493      1.56916147715579     -1.32760485680451
  H   0.50588763912865     -2.51566266536794     -0.07615625418843
