21
Coordinates from ORCA-job 14325optt
  Br  0.93711545633070     -0.11203015537408      0.33490979081166
  C   2.78783968648428      0.12698048755586      0.24333791929356
  C   3.31409956998546      1.36509340967096      0.28053096696939
  N   2.71564324404052      2.59342289921572      0.49467351147942
  C   2.88025945052030      3.36457504973450     -0.49730844599464
  N   3.50806391705424      4.59251820028277     -0.27132660464347
  C   4.64243137558880      4.29297853673174      0.21819785054588
  C   5.31835659519940      2.90419594795236      0.42301446207836
  O   6.48858229954703      2.96805910382395      0.67973771305849
  N   4.72440552312145      1.60575246277298      0.22415707329688
  C   5.59672027921514      0.53071058252189      0.14901372596072
  C   5.09742674185730     -0.70688945700320      0.08866511494886
  C   5.74981866871524     -2.03427419611832     -0.02060468221914
  O   6.91719467311314     -2.33906159948341     -0.09455243176319
  N   4.65693341268337     -2.87149078778470     -0.02254214857966
  N   3.42522555408556     -2.25304969479297      0.06615502100412
  C   3.67978556048800     -0.98995123708094      0.13216846661556
  H   2.81823423036496      3.06272800117697     -1.54819472734219
  H   5.36239750827312      5.07167745049936      0.45413408813663
  H   6.65056877218003      0.76727954085077      0.14077393035436
  H   4.69489748115193     -3.87422454515223     -0.08794059401159
