25
Coordinates from ORCA-job 14321optt
  Br  0.87736513609527     -0.56606002856172      0.27832406427674
  C   2.72906918190193     -0.36537594212007      0.10486935430327
  C   3.51023075116011     -1.47327966825761     -0.04420208964200
  N   3.23022906716736     -2.80033390062603     -0.10462423761061
  C   4.42000315003357     -3.52421786562922     -0.26983333478986
  N   4.47336456710704     -4.91684214179991     -0.36446189946186
  C   4.19795748135183     -5.67192864139158      0.83860096174509
  C   2.73799721225268     -5.75916106364683      1.22665968676381
  O   1.83836886035698     -5.22675518289016      0.63112680657502
  C   2.39948601625471     -6.60900326569411      2.45485845011765
  O   3.24324184908035     -7.19457621791927      3.06615501668333
  C   5.43389866896572     -2.64055832929521     -0.30585404210491
  N   4.87454532122867     -1.37610302315492     -0.16385463414212
  N   5.54332934647164     -0.21721976941700     -0.15098830849651
  C   4.82504049973110      0.84235003283639     -0.01878784736566
  C   3.35637783652205      0.92581263650910      0.12184499967144
  N   2.70819613360976      2.02728270603404      0.24692198751662
  H   2.30696198606150     -3.20355371961965     -0.04397243376029
  H   3.95350765251117     -5.26721023633390     -1.16028502796123
  H   4.75137514482044     -5.24390284077598      1.67851242941156
  H   4.57172794584635     -6.69473350168782      0.73608388310984
  H   1.32671483284468     -6.62972312449295      2.71413932036696
  H   6.49189444138328     -2.78073974009602     -0.42643851030024
  H   5.38203868741113      1.77345907411212     -0.01127319546060
  H   3.34307822983062      2.82237375391836      0.23447860055457
