20
Coordinates from ORCA-job 14326optt
  Br  1.31132012246421      0.85287061305374      0.08971444854673
  C   3.11303717952031      0.39303348412461      0.08758162323820
  C   3.55062165788292     -0.89184115378790      0.06911021000701
  N   2.68089953473245     -1.96096416829500      0.04147162200498
  C   3.02251025277008     -3.18646912319718      0.02044146081474
  N   4.26734469137847     -3.85131908334299      0.02446486505541
  C   5.44341886648768     -3.41083047699760      0.03978000815382
  C   6.61516395106420     -4.39382670539114      0.04868518536541
  O   6.42028674322898     -5.56298668299426     -0.06629660882291
  N   5.80903064008206     -2.04582092704809      0.05904593713490
  N   7.11047682181751     -1.61914615523504      0.06025778729638
  N   7.11009024032217     -0.34705586299970      0.07494295407068
  C   5.81582372605256      0.09378908991957      0.08293989119346
  C   4.98308326363560     -0.98050348770131      0.07153308419070
  C   5.29903200750929      1.44859668490903      0.10046411615765
  N   5.87792047441431      2.55564545486301      0.11146752695615
  O   3.90237152090418      1.47491486967995      0.10598421423758
  H   2.21042100742633     -3.90384148414502     -0.00433755035733
  H   7.61460620462376     -3.95611159759738      0.16771869032497
  H   6.88754109368288      2.42586671218270      0.10703053443146
