21
Coordinates from ORCA-job 14327optt
  Br  1.72090056386771     -1.27977837250035      0.77735004315138
  C   2.83713520691099      0.12001010829464      0.23136321248375
  C   2.48925732105813      1.40941391589310      0.28577723480771
  N   1.29968188013271      1.90205867689260      0.82036664916195
  C   0.18465918358151      1.69972148492643      0.26191069888566
  N   -0.95499984132453      2.29401636162563      0.79437197592151
  C   -0.84008949454550      3.50425240778246      1.14420887590390
  C   0.39360964825496      4.38557870725273      0.97119235235245
  O   0.79486287114478      5.03596312824680      1.89549694289599
  N   0.78344244999771      4.57472719620708     -0.34680230542213
  C   1.87462066376248      4.33222377993718     -0.92666744404022
  C   3.14781828277893      3.69296179549554     -0.51596367100633
  C   3.44312614644868      2.45755948702495     -0.08755194429703
  S   5.15393982608608      2.08023088083821      0.13529825711471
  C   5.20366325303147      0.34164229935952     -0.16676438215565
  O   6.23012395278010     -0.22171195477649     -0.34126832664131
  O   4.03444211381877     -0.36015825308475     -0.19872162770213
  H   0.03389282940096      1.07432226014425     -0.61898632672874
  H   -1.66840982577284      3.99139387895362      1.65449128116098
  H   1.95094180233175      4.72288585324018     -1.94536046575917
  H   3.99238116625513      4.31668635824665     -0.79874103008729
