21
Coordinates from ORCA-job 14323optt
  Br  3.81805031971636     -0.45241960761005      2.56559516129711
  C   4.68180902985558     -0.17853083004506      0.93582758713291
  C   5.95543785510182      0.20180915389590      0.79612024941595
  N   6.40909257848166      0.18152958534471     -0.52789639158271
  C   6.04411747792063     -1.04491473257053     -1.12724473590328
  N   6.76345067083647     -2.07486172761666     -1.30144474393940
  C   8.00113325683030     -1.98889532710402     -0.62943321449813
  C   8.94047009957185     -1.08610158652616     -0.85915256932472
  O   9.81111477128300     -0.69553166730285      0.16301276031550
  C   9.14936045587027      0.38421711706858      0.71941163975079
  O   9.32279764296024      1.50085615812335      0.35986884229184
  C   8.20899186064110      0.08551514061914      1.90728682968913
  O   8.72204594462032     -0.24688446038977      2.94091133203559
  N   6.86191462595341      0.41938744388112      1.83998592383723
  C   4.53881869439199     -1.08123304132179     -1.26606956256016
  O   3.90220741611664     -1.50687096903233     -2.16295176974138
  O   3.93306218291891     -0.48223413526977     -0.17712022942338
  H   7.29342170709282      0.60599315228468     -0.74309547295143
  H   8.05884843060514     -2.62695705962033      0.24844433093570
  H   8.98402175932356     -0.47116026983703     -1.75291345917240
  H   6.43783321990786      0.37928766302887      2.76185749239521
