24
Coordinates from ORCA-job 14333optt
  Br  1.31661011466351      1.40596861230312      1.20567958677597
  C   2.66110251430536      0.28650559157217      0.49254546105630
  C   2.55157486259343     -1.06560327803944      0.52498049015860
  N   1.49657720918426     -1.77635666857052      1.09311758884380
  C   0.37992685228666     -1.66176703791971      0.51038315322345
  N   -0.75965820165428     -2.32739189381177      0.94024367752954
  C   -0.83815724366599     -3.58219449211594      0.90805340752210
  C   0.27778131196298     -4.52105036129614      0.47659310206304
  O   0.49388456637112     -5.49693895826468      1.12181186768470
  S   1.27046846631306     -4.05333790916657     -0.97991576063788
  C   2.80114334127203     -4.22232367478729     -0.11984201867713
  C   3.64232756618786     -3.25342460364190      0.22443018861216
  N   3.58091850968282     -1.85382388359361      0.01524240579032
  C   4.75223608254144     -1.29811374849383     -0.57345957488902
  N   5.67208375094284     -1.98697055053450     -1.12892954836511
  C   4.84577995879343      0.14513020018793     -0.50890487837867
  C   3.84878147060322      0.89620184186965     -0.01577780588218
  H   0.20625652989271     -1.00589037659813     -0.34462216999621
  H   -1.72029034766748     -4.08035087152008      1.30603502817818
  H   3.05047032181446     -5.23227925680535      0.17651599992977
  H   4.57033150146498     -3.55426267646141      0.70391882317849
  H   5.46785288054522     -2.98021001030288     -1.17687692165300
  H   5.75581191308338      0.57261771832251     -0.90263195003078
  H   3.92718606848294      1.97486628766836      0.00940984796356
