26
Coordinates from ORCA-job 14338optt
  Br  1.83656453007249     -1.85565981184685      0.81865607797353
  C   3.38107452447965     -0.97388391183594      0.20532162957266
  C   3.69973643544898     -0.87268722140030     -1.09374706292522
  N   4.92474010905440     -0.24384677169905     -1.39776863249585
  C   6.02443075484988     -0.31389051175037     -0.54395027208565
  N   7.20046158666043      0.10495487795972     -0.74363364972008
  C   5.62145320492129     -1.10446647258146      0.65566925450727
  N   4.35984208870409     -0.67828455400186      1.15919366687931
  C   6.16701895150091     -2.29717719910400      0.86818585282201
  C   5.45367243861951     -3.38973683594525      1.58583232075845
  O   5.18353014703775     -3.34092103939837      2.76321092763719
  N   5.14980655880080     -4.52273809172435      0.83520290972895
  C   4.70853186264516     -4.70882493847916     -0.49933441445702
  N   4.38091775895747     -5.89273335533880     -0.81013520140846
  C   4.55613318212740     -3.48814536340497     -1.31643369242694
  C   3.37318602111664     -3.08567650056204     -1.79010027718545
  N   3.13556938501489     -1.72682079980679     -2.08516254637699
  H   5.07693939686293      0.02934568734697     -2.35662319302664
  H   7.29895940681777      0.56366044821680     -1.64846161693158
  H   4.14982857142008     -0.98020659913333      2.10150524899932
  H   7.08212691067313     -2.54817879184389      0.34553353789134
  H   4.90175684647268     -5.31565647235008      1.41676200809856
  H   4.07650631379702     -5.93109014521604     -1.77875626626860
  H   5.37273591563430     -2.78504783429525     -1.32016280039313
  H   2.51724130438827     -3.75005153231708     -1.84499719830209
  H   2.18823579392200     -1.51523625948822     -2.35780661086489
