28
Coordinates from ORCA-job 14347optt
  Br  0.83966850167566     -0.79545742400528     -0.32760439982252
  C   2.69474007623141     -0.52305585696296     -0.24798679290551
  C   3.18119704417643      0.73698219702534     -0.15292290460150
  N   2.49569996661283      1.93103593634253     -0.08947041019240
  C   3.34617941231805      3.01931707110453     -0.00708682693930
  N   3.10614640726987      4.25288135462259      0.06691799096140
  C   4.75219436990310      2.44578651983508     -0.01870211209672
  N   4.51571846591330      1.00967779437306     -0.11618780194835
  C   5.44405417464297     -0.00433401255964     -0.17037694658579
  C   5.01668731501338     -1.28739196686850     -0.25271294854299
  O   5.91913235762753     -2.30487972917229     -0.26812419479511
  C   6.70333864357238     -2.42408580201113     -1.44931669110357
  C   7.92904964501077     -1.52486945481034     -1.39819470267426
  N   7.66723302929381     -0.09406363107088     -1.32868814486869
  C   6.91681541977153      0.33962981843862     -0.16154217614471
  C   3.59256792847978     -1.66720901326004     -0.32156121566732
  O   3.22210303528488     -2.81918205125391     -0.44243999829267
  H   1.48881256629640      1.96805823338008     -0.10013498754993
  H   2.11037532890116      4.46321364030979      0.06458599953929
  H   5.27551769276047      2.71572161943770      0.89884900198079
  H   5.30925982939940      2.82956561127426     -0.87374907252378
  H   6.08275346720058     -2.19515035483715     -2.32179430635722
  H   7.00640430647625     -3.47004913766022     -1.50516562062976
  H   8.54811166018151     -1.71787794371603     -2.27693239605693
  H   8.52063760118150     -1.79511347648712     -0.51953408548398
  H   7.22359876539568      0.23172489220621     -2.17976966625037
  H   7.04642520256934      1.41573540685464     -0.04517529099912
  H   7.37057778683998     -0.13361024052895      0.71282070055102
