24
Coordinates from ORCA-job 14345optt
  Br  1.74163928811820     -2.03500477025772     -0.15881002987742
  C   3.48158217541609     -1.36729747853751      0.00952816977782
  C   4.22131862844554     -0.91676102584900     -1.00643721010068
  N   5.47117305014412     -0.33242457245973     -0.72408709849454
  C   6.03042974950531     -0.28358203143294      0.55681016132574
  N   6.92401026974709      0.47949977667260      1.00441459072972
  C   5.46114843105034     -1.46415385272392      1.28515049841366
  N   4.05477427393259     -1.45537283378731      1.28855509903783
  N   6.17704958268397     -2.48130523806845      1.52475498521061
  C   5.47038866477108     -3.69319145857009      1.29695765752311
  O   4.92138457164088     -4.39776187316370      2.09264806658563
  N   5.48266624939103     -3.90036023675184     -0.08648515648823
  C   4.39582139886169     -4.43329294274135     -0.75216550663296
  C   3.96803276354263     -4.02797201438039     -1.95273455753881
  S   4.73980687880213     -2.80020582391181     -2.97325874166247
  C   3.96307544894488     -1.25010876044458     -2.43506082098547
  N   3.39709795087777     -0.53514480371148     -3.30021538497098
  H   5.89820213915709      0.22861645566844     -1.44654800725118
  H   7.21514896599584      1.18074656519394      0.32462855800332
  H   3.62504289883430     -2.14237041735334      1.89846858641304
  H   6.00629533603395     -3.21335601386263     -0.61505310181807
  H   3.85661788291231     -5.19546042863212     -0.20204254609110
  H   3.09700624503029     -4.50423852406884     -2.37914795149004
  H   3.08128715616079      0.34750230317381     -2.89087025961854
