24
Coordinates from ORCA-job 14348optt
  Br  1.04669905519932     -0.19026101320835     -0.03622996767406
  C   2.91479707890289     -0.16203300777358      0.06531688493887
  C   3.60217306036254     -1.30968409743298      0.00172596143375
  N   3.16780251211348     -2.59982800460712     -0.17050333894264
  C   4.21085762706901     -3.48942580020112     -0.38066124426697
  N   4.20503008919700     -4.71745657163012     -0.64650499716206
  C   5.49155094963151     -2.68858091487592     -0.20827687192121
  N   4.99096816222889     -1.34018597526623      0.05806626343135
  C   5.63084627079615     -0.13429999828849      0.09389696715587
  N   5.05278821569672      0.99685268649165      0.15697412959335
  C   3.64348265072663      1.10132592342797      0.17256712422403
  N   3.04021358765800      2.21190718998170      0.26262952606130
  N   7.03628346310617     -0.16244591428429      0.02290170517878
  C   7.80408598037382      0.81602213611945     -0.55967038550126
  N   9.06070409564894      0.56124070180300     -0.39498502364441
  N   9.15983966943480     -0.59687390392101      0.33957726948945
  C   7.95973033604943     -1.01484850203923      0.57935703434609
  H   2.18920118230998     -2.81364258518720     -0.28602397772327
  H   3.26822091601278     -5.10823772264586     -0.71967584292627
  H   6.10587512533080     -2.72731634656616     -1.10808605727143
  H   6.05143933290349     -3.09768625154054      0.63018388510477
  H   3.72079768944368      2.96698485904425      0.31817399934090
  H   7.36778808542734      1.65507957908368     -1.07372524072735
  H   7.70682486437654     -1.87960646648348      1.16697219746240
