21
Coordinates from ORCA-job 14351optt
  Br  1.01727007291973     -0.27852644172778     -0.24638897884416
  C   2.88581057102121     -0.14432926421820     -0.08434814269899
  C   3.60192398388462     -1.29907569830867     -0.07791908266434
  N   3.17370259176144     -2.59792860498747     -0.12522045645254
  C   4.22870253693819     -3.50796378116177     -0.05856220626901
  N   4.21720571063224     -4.76392356587210     -0.04685347611230
  C   5.49118105336978     -2.66935294141405      0.00461266601728
  N   4.96650993797716     -1.31002352945063     -0.00721920543089
  C   5.76206192683129     -0.18639869738953      0.02070824925937
  O   6.97294077794387     -0.25798657444530      0.05877558780657
  C   4.99180284791046      1.05767467756402      0.00658499726849
  C   3.61921022524923      1.07776867149302     -0.01343184799470
  C   2.94104968355187      2.38431776297448      0.14048931216838
  O   1.85674034753580      2.51389563245779      0.63161432906839
  N   3.60627144856445      3.57379737491898     -0.32382140963025
  N   4.83704076562307      3.69628635191573     -0.37537777193648
  S   5.95851829620455      2.48271542217960     -0.03932703237109
  H   2.19525693235592     -2.83734822345605     -0.16361614562281
  H   3.28031717294750     -5.15846836300275     -0.09323769929851
  H   6.13911948543691     -2.84571475738208     -0.85342290323004
  H   6.05936363134066     -2.86141545068723      0.91396121696763
