22
Coordinates from ORCA-job 14359optt
  Br  0.80015212028130      6.52116442598493      0.02851057390558
  C   2.43106628769199      5.64466299615444      0.29799683690619
  C   2.61925477485963      4.33373161427246      0.01473122544588
  N   1.66452833373987      3.66142023184327     -0.75932914583868
  C   1.48748488780504      2.40523213692017     -0.70171823986509
  N   1.99088712725674      1.45612381065679      0.17612882583645
  C   3.17942426549786      1.55871374791128      0.63845693076683
  N   4.17951441113242      2.48016672864915      0.43831689099611
  C   3.93320854702636      3.74189093706091      0.29035976655073
  C   5.04123440141245      4.69472430416328      0.40586660953820
  C   4.74257191240843      5.99882890203122      0.69976297820095
  N   3.45445249080578      6.44222722112915      0.73422326327760
  S   5.97307460514816      7.18483461532390      1.12318711903823
  C   6.81305030451789      6.99915029943730     -0.46742350650590
  N   7.36965434953024      5.93514298393244     -0.82337973380054
  C   7.33609558573499      4.76295855637516     -0.07551964001680
  N   6.32094821107617      4.17405824355318      0.41550447260679
  H   0.77742403191209      1.99275935296046     -1.41507644620414
  H   3.49678304350414      0.75877148200421      1.30629964849134
  H   3.26566845705203      7.39714855762670      0.99711632209282
  H   6.79756017817338      7.86803376847055     -1.12043793746771
  H   8.29296167343303      4.25125508353903     -0.03157681395486
