21
Coordinates from ORCA-job 14350optt
  Br  1.17101954484256      0.18812988291463     -0.21151570569833
  C   3.03002061401762     -0.02296332081011     -0.08278874621140
  C   3.59306502284435     -1.25837843013624     -0.01869199523988
  N   2.88364164416247     -2.42539000132450     -0.02435789223281
  C   3.51582089831728     -3.53086755018541      0.09871387598688
  N   4.88614926308423     -3.67080193087946      0.27835998368527
  C   5.55550299192976     -2.58650127024925      0.24270548284089
  N   5.00784619013112     -1.33520501589158      0.05040990806936
  C   5.83240471623815     -0.19864754825915     -0.02360318729221
  N   7.10110440477447     -0.13857052579924     -0.08031685884543
  C   5.05117921247539      1.05011692871347     -0.02415549048563
  N   5.84148855444267      2.18267807509003     -0.00863536300129
  C   5.49861545837169      3.50603042406049      0.07369955816282
  O   6.31831219283599      4.38258062698068      0.02261734944364
  C   4.07660412562984      3.84815012227245      0.25704700970804
  N   3.01920525475669      4.25428944912014      0.42113231282150
  N   3.77283217340764      1.10632877965892     -0.06587776916554
  H   2.95052759531910     -4.45450643841332      0.08054445408188
  H   6.62756957130998     -2.61513307988637      0.38997834898840
  H   7.59967601748647     -1.01791334302009     -0.12413089504982
  H   6.83941455362243      1.99957416604391     -0.06913438056636
