23
Coordinates from ORCA-job 14368optt
  Br  1.08330707712697     -0.14889896543404     -0.00932080955704
  C   2.95264076373524      0.01126729383893     -0.04617219201603
  C   3.73411595865723     -1.07773323140033     -0.04806023003896
  N   3.35122950648562     -2.39960738428763     -0.02760008279434
  C   4.41503824746378     -3.29000494200516     -0.03025943896341
  N   4.44825501698089     -4.54763183309513     -0.01524890864433
  C   5.66629412441324     -2.43913403717416     -0.05538145390286
  N   6.85157754509694     -2.86065112352744     -0.05924825898127
  C   5.20135029797686     -1.04056975744740     -0.06350651420687
  C   5.87858745459645      0.11580265206405     -0.07649533134148
  O   7.21616549319500      0.14919771533614     -0.18248834820531
  C   7.95604012743362      1.02137258756270      0.59645339742188
  N   9.18048708741279      1.17689531029557      0.44359380119391
  C   5.10779422942412      1.39402689593621     -0.10656227845073
  O   5.66191210933303      2.45927932888795     -0.16840819004821
  C   3.57025618778512      1.32884727345526     -0.07460688652675
  N   2.90255883951973      2.40315904615319     -0.07689645293731
  H   2.37884508712444     -2.66945871926307     -0.00943624531920
  H   3.53026973598220     -4.98590640698668      0.00136331481464
  H   6.83523264449314     -3.88642187255658     -0.04209331405644
  H   7.38959446055228      1.52459313583179      1.37314037420714
  H   9.53986301827745      0.61928107342801     -0.33167398952037
  H   3.54158498693380      3.20229596038784     -0.10809196212665
