23
Coordinates from ORCA-job 14363optt
  Br  1.10542428661218     -0.13660047936384      0.35429924322725
  C   2.99071701564297     -0.05782583233508      0.17241604268051
  C   3.60092570280858      1.17936301165898     -0.09253270790079
  N   2.77677439271214      2.29297369454255     -0.29216690066728
  C   3.10481006636148      3.45981468969970      0.03562343401741
  N   4.34269307028841      3.88868929580031      0.54844626597440
  C   5.51565276700806      3.45398706187436     -0.07695438396461
  N   5.80492667212278      2.28970922325851     -0.46159245760540
  C   4.99612406016664      1.16993830489662     -0.19545947698236
  C   5.67080042718682     -0.04098588686430     -0.06330961696369
  C   4.95648359081010     -1.19153536642048      0.20394379570048
  C   5.62622722963908     -2.52100339684396      0.38652273931134
  C   5.83101265055033     -2.87026018784483      1.84262369020340
  O   5.58586393212074     -2.17124743060914      2.77746692356932
  C   6.41449346010258     -4.22284615302454      2.05135778328083
  N   6.87692680927215     -5.26494745104405      2.16511311887008
  N   3.62861627621982     -1.19024093223515      0.32462803274472
  H   2.37929245697299      4.26024536791224     -0.09334659380795
  H   4.35796458016312      4.86950432089583      0.78592981546947
  H   6.24534809738891      4.24445826556502     -0.24205472346874
  H   6.74644939708114     -0.04976437306127     -0.17621177556001
  H   6.60669467821091     -2.55948008122185     -0.09657075302344
  H   5.01977838055788     -3.31494566523562     -0.05717149510498
