25
Coordinates from ORCA-job 14360optt
  Br  0.99272788078716      0.13754725040828     -0.03091325472501
  C   2.87561708874895     -0.00459780146854      0.07856716488514
  C   3.59417437103964      1.17686621477925      0.19103019259130
  N   2.98201977178297      2.42454271768651      0.28111601903257
  C   3.63941230457684      3.63209803613985      0.20356631169783
  N   3.12085203497381      4.78018806648574      0.34408782438537
  C   5.10331216634071      3.52945379057279     -0.14746098603122
  N   5.68939739382146      2.33932749061663      0.44994618393850
  C   5.00895656487901      1.15817036176013      0.27508234171981
  C   5.60822673894507     -0.07550307789803      0.23811865723787
  O   6.94505023932375     -0.35306419249064      0.34933805048379
  C   7.04535570826999     -1.73322180454444      0.01421684696733
  O   5.75133504028844     -2.29950280074891      0.18517429083499
  C   4.88415093611265     -1.24257970743678      0.14459128161220
  C   3.50337966795525     -1.27208307489750      0.06112746216043
  C   2.85048495587011     -2.59154877003829     -0.03603419355399
  O   1.66859046485709     -2.79999091267530     -0.11769977250750
  H   1.97858836947792      2.43431099708085      0.39254873471324
  H   2.12079202548675      4.73213110553261      0.53544403829714
  H   5.59854139379546      4.41814977509876      0.23117683606842
  H   5.18514966976631      3.52063828107452     -1.24225414203811
  H   6.69228029836401      2.26177432820761      0.37221664600941
  H   7.74610204156760     -2.22005938702023      0.68667289408769
  H   7.34499600582213     -1.83048018764561     -1.03409292816858
  H   3.56850686714688     -3.42956669857930     -0.02756649969863
