21
Coordinates from ORCA-job 14373optt
  Br  1.87414675472071      1.56421476237899      0.76685842487658
  C   3.54997866949413      0.81946478653395      0.43218642577431
  C   4.52149021258076      1.53470551491508     -0.12828601297234
  N   5.79334393689556      0.97660120356949     -0.38296848017793
  C   6.94243978958812      1.71936099240096     -0.35974381855964
  N   7.14041062047098      2.93368355631103     -0.01060278849530
  C   6.17848615648931      3.82243677046920      0.42248593850494
  N   4.94848792772343      3.93076108298476      0.11780168096965
  C   4.36089097665647      2.94643119089038     -0.66677549918197
  O   3.75506255244452      3.15416985240222     -1.67260509414935
  C   6.72215008590603      4.82546823234543      1.33084179481525
  N   7.14517395871224      5.59793387686860      2.06226223015980
  C   5.90361624782488     -0.44855909910842     -0.51185208902804
  N   6.78013841746602     -1.08931409600115     -1.14751368695720
  N   4.94483188195765     -1.11750070114533      0.21185876438428
  C   3.76865243714110     -0.60185815924629      0.76226926110175
  N   2.92816110057371     -1.26460943297589      1.43039598907151
  H   7.82030314522624      1.14894806916625     -0.64188822988970
  H   7.42349423744133     -0.51824114036213     -1.68059711022177
  H   5.04546039433355     -2.12241841786045      0.17547465898067
  H   3.20628049635318     -2.23467884453672      1.56639764099449
