16
Coordinates from ORCA-job 14375optt
  Br  1.12732425866295     -1.69879422755272     -0.28887010701051
  C   2.63214594076620     -0.60088803301411     -0.12662051547931
  C   2.51304254749585      0.67948158725338      0.27571167138621
  N   1.38266550631878      1.19009571062241      0.86590481221446
  C   0.90344502372564      2.35323299671845      0.65327750957905
  N   1.24091252652250      3.25850450763640     -0.32795344149593
  C   2.45166501852599      3.37081527501464     -0.72158018997250
  N   3.60216095337779      2.80381756855960     -0.21124985853569
  C   3.67738756019741      1.61161132374242      0.22844061123106
  S   5.23627748974919      1.07631996408955      0.82490166176843
  C   5.17570386778255     -0.65717180836689      0.36154362340661
  O   6.10611061196515     -1.34946180929129      0.60879847601084
  C   3.93381465351724     -1.23282004439333     -0.38966303886718
  O   4.09849651269151     -2.22421181794972     -1.03453707847583
  H   0.06249439337789      2.65541759301580      1.27069182914524
  H   2.65335313532334      4.07205121391540     -1.52679596490497
