24
Coordinates from ORCA-job 14384optt
  Br  1.17118769989332     -0.05366318657196      0.23322114656180
  C   3.02036028494281      0.04324644773714      0.00442008044438
  C   3.67078299954340      1.22448773612074     -0.10586882674706
  N   3.09071373648026      2.47596437561600      0.05433963347048
  C   3.87817869750710      3.47002817797005      0.22440931763302
  N   5.26445711320194      3.51494684812886      0.20544536713380
  C   5.87062117678139      4.78610631463758      0.20278688452151
  N   7.07281747489335      5.07795456300663     -0.00613675301137
  C   5.97271798382744      2.35901698685484     -0.32767698110236
  C   7.22812966030687      1.79537166351753      0.39783258991331
  O   8.02598068896005      2.41222935032536      1.03030328394379
  C   7.22095881894742      0.26272303505136      0.20867165459589
  C   5.76378311994843      0.03780421513633     -0.01564661891797
  O   5.16038337793159     -1.14407638718896      0.13381837841559
  C   3.76064264795536     -1.23002141330529      0.01069790333782
  N   3.21823099175675     -2.36081502506474     -0.02995579740271
  C   5.09264039053326      1.16290107698630     -0.24502018599694
  H   3.42856856055943      4.43998625264276      0.41647370781405
  H   5.15134980828837      5.57902120438325      0.40070575303001
  H   7.68067442835755      4.26945558023054     -0.12074084256953
  H   6.27728354474598      2.59201581889244     -1.35999342656924
  H   7.61211772206670     -0.23959322822870      1.09342793839722
  H   7.84854596425931     -0.00784666387569     -0.64558525805285
  H   3.90887310831183     -3.10624374300238      0.01907105115737
