22
Coordinates from ORCA-job 14385optt
  Br  1.17975705762813      0.07680672081867      0.43031885414143
  C   3.05449708055224      0.01110234585118      0.20416619558823
  C   3.68590499987167     -1.21346303406637      0.01184844074757
  N   3.00928662532016     -2.46407416301831      0.03238634784690
  C   3.70344682702656     -3.40873413290508      0.85943988314388
  N   3.53209845267959     -3.47453339312145      2.10253342573015
  C   4.72310267939762     -4.29583512544357      0.19200970850615
  N   5.57567052234919     -3.55105847684106     -0.73741218430686
  C   5.98629679629255     -2.25465625698195     -0.48730335505423
  N   7.21659826790737     -1.88139191210646     -0.66204164039462
  S   7.41310947742173     -0.23789913642567     -0.49884339784476
  C   5.75220836215416      0.04064438746009     -0.15214058130760
  C   5.06766737948624     -1.17376425409159     -0.17366975551074
  C   5.00488512806169      1.20398626692368      0.07112228434786
  N   3.69405647057584      1.16993596119291      0.23478792528823
  C   5.66246306523800      2.48587604209032      0.11288280386628
  N   6.24423404716763      3.47346075015015      0.12992334718625
  H   2.86803479218258     -2.80964048892293     -0.91273917474654
  H   2.78919186370494     -2.83602679296815      2.39311558311793
  H   4.20138543122877     -5.06777537714787     -0.38116751534562
  H   5.29175734100270     -4.78336130214435      0.98511315775493
  H   6.33734733275055     -4.10559862830216     -1.10433035275482
