22
Coordinates from ORCA-job 14389optt
  Br  1.55260828089463      0.43536970866120     -1.91505001437812
  C   3.18463966790071      0.37905360683861     -1.01849566708483
  C   3.62976072303627      1.32816063421837     -0.19902243188930
  N   4.89007998461685      1.10097141840944      0.41797745714756
  C   5.84609016523474      2.10019294374787      0.57671180677175
  N   5.83133198803185      3.29599694574012      0.17856675964042
  C   4.75950953362370      3.94256659618759     -0.45136324384038
  N   4.99961324134596      4.70783052689113     -1.42884005659932
  C   3.40908826772582      3.74310024608253      0.13511575282923
  C   2.86462136196183      2.52661588824103      0.22983936524590
  C   1.56684519960892      2.32995415928867      0.79740766464160
  C   0.49370398303804      2.15674176688052      1.30296540207233
  C   5.23675988897569     -0.23713011873599      0.70172905582536
  N   5.92268817797904     -0.66543971443491      1.66028678187921
  C   4.79451138730186     -1.23322325335982     -0.36114266388223
  O   5.22487392221796     -2.32488778619123     -0.47189850432947
  O   3.88393094544077     -0.75761039518634     -1.27448637580484
  H   6.73770923349019      1.73669763701395      1.08085041264377
  H   4.14007648565497      5.13909845552556     -1.76667966427087
  H   2.85253507864038      4.61636515960830      0.45405123850984
  H   -0.46166884967142      2.00306913691693      1.74620211029330
  H   6.16769133295116      0.06350643765646      2.32927481457909
