23
Coordinates from ORCA-job 14397optt
  Br  2.33447313894067      1.05116568864866     -1.04224330481507
  C   1.01125124387384     -0.17586231554048     -1.79843490599939
  C   0.29425129979623     -0.84093773928305     -0.75500924623794
  N   -0.17943136234952     -2.08774311997792     -0.83609484575517
  C   -1.48621352507277     -2.42483896852175     -0.28657516425858
  N   -1.68722686203498     -3.28346827615183      0.60303471510644
  C   -2.61769164989926     -1.66087192948966     -0.90764599188646
  N   -2.29879746678175     -1.03368084995776     -1.94903618518201
  C   -2.96860150132771     -0.19344249186882     -2.81638557423619
  C   -2.20161791461218      0.53310519413209     -3.67043376115932
  C   -0.75124682084100      0.40428026997549     -3.52566274182558
  C   -0.15916398617462      0.57215403993351     -2.32838520899998
  C   -0.83902098907222      1.34475664508629     -1.24140858780248
  N   -0.80098075166317      1.06659071582357     -0.00493844607284
  O   -0.13986893652087     -0.19356278291478      0.32570804369968
  C   -4.40770701128939     -0.18579526852698     -2.85790783427040
  N   -5.55438715112992     -0.21727008790779     -2.84467048739875
  H   0.15586401819184     -2.61076753089998     -1.63716135198225
  H   -0.81833991855223     -3.70510902072670      0.93127149582195
  H   -3.59160482444609     -1.69977169583683     -0.41507590970918
  H   -2.66912925550696      1.09580510793357     -4.46946979742534
  H   -0.19064718962519     -0.05849881986054     -4.33117870092084
  H   -1.41316258390274      2.24176323593170     -1.45229620869028
