23
Coordinates from ORCA-job 14398optt
  Br  1.08372090611568      0.61845663485575      1.74527141870187
  C   2.33075089379249      0.75753168841862      0.32984704643153
  C   3.39711454096424      1.55094195205223      0.47415984048459
  N   3.36105266926840      2.67918363232179      1.25898365145090
  C   2.22116635879102      3.49286912900581      1.14751793443668
  N   1.70374748026055      4.22965323458218      2.02391457804692
  C   1.73868579132358      3.59590517515001     -0.29397476269615
  N   0.86956570007633      2.97576384651712     -0.94186287982674
  C   -0.15001683246232      2.08099574266585     -0.84636284428868
  C   -0.18352241697208      0.78668936913685     -1.24860246954829
  C   0.96456651395066     -0.01545719471114     -1.58126466204387
  C   2.14311188225280      0.03562823995509     -0.91444375283497
  C   3.38479075937671     -0.45076842924146     -1.54114583226985
  O   3.48649641926230     -1.29756866985710     -2.37995293631517
  C   4.67301817166557      0.33036875226152     -1.12666561317073
  O   5.75115759289097      0.06218523396054     -1.52588414179715
  O   4.49680131403510      1.44871923903074     -0.33855859854660
  H   4.06897876790987      2.89079124552003      1.94667385644758
  H   2.14320522966678      4.11906644227109      2.93776567502303
  H   2.31297063095030      4.34875045499795     -0.84183333866999
  H   -1.09099329667893      2.57082076038272     -0.61270187255454
  H   -1.16751840289209      0.35977102847311     -1.39201428119745
  H   0.90914932645204     -0.67729750774931     -2.44086601526291
