24
Coordinates from ORCA-job 14391optt
  Br  0.57835862036345     -1.29022345581561      1.11621983995170
  C   2.04202498939805     -0.42933475051195      0.29967398489593
  C   2.00710984660737      0.90811301781847      0.08870242469547
  N   0.86828882936323      1.59047843441561      0.46485604488338
  C   0.72250756247601      2.84070626099903      0.62558100868543
  N   1.57705677599248      3.89963760182146      0.50095405451360
  C   2.85413272983389      3.98984818302180     -0.06643462657959
  N   3.49232463203575      5.08376674727401     -0.14762173581672
  C   3.50226413462159      2.79969747200762     -0.62353801995347
  C   3.17235373874255      1.50442574516180     -0.56828303816499
  C   4.16925534945791      0.56447542515892     -1.22064836797523
  O   4.94720193825423      0.97936409857981     -2.04235652794321
  N   4.18983724527440     -0.75359737015183     -0.81166008774537
  C   3.22203897840840     -1.22190173735714     -0.08999880431193
  N   3.27175016342226     -2.50754728464410      0.33567048712943
  C   4.27915205533822     -3.46684833623711      0.09891596683174
  N   5.33806739605407     -3.36964049605350     -0.56581331179012
  H   -0.26274514222803      3.17072633448489      0.94973379108335
  H   1.18434627299967      4.78698658123740      0.77874720790779
  H   2.99009386411731      5.87125759292742      0.26087883503446
  H   4.42403430597346      3.04153204908965     -1.13795868295019
  H   2.48772706350854     -2.82843754255859      0.88287059956598
  H   4.02956086436447     -4.40216468158876      0.59853809929119
  H   5.44025778562052     -2.44231988907937     -0.97702914123860
