23
Coordinates from ORCA-job 14393optt
  Br  2.44828367372428     -0.23681088969335     -3.72138485187032
  C   3.29292221274914     -0.41578957289944     -2.06733417290585
  C   2.86749248725572      0.29172782047771     -0.98856329139371
  N   1.75243237013155      1.08363344516867     -1.15689877753891
  C   1.25474439943587      1.97963689173198     -0.41759275798235
  N   1.62101854464461      2.50697162986229      0.79342683045537
  C   2.57442418647838      2.04976025879005      1.71059676289584
  N   2.74439864094062      2.61222316986344      2.83894083374113
  C   3.40921050659235      0.89992650422499      1.40529685090008
  C   3.57626530410903      0.15392964529928      0.29469318018890
  N   4.52304196714933     -0.85691662531246      0.37150814029687
  C   5.02429068147025     -1.61604646548018     -0.65918052095448
  N   5.93336500546713     -2.49194902597777     -0.56051938144785
  C   4.42118741430105     -1.35483297877771     -2.01423492669824
  N   4.85316150969938     -1.93510072221866     -3.04879257154032
  C   0.04714703194523      2.62766708894126     -0.92412761532774
  N   -0.90219678828199      3.16737373307727     -1.26936037836742
  H   1.05150993940890      3.27514825352831      1.11879887529078
  H   2.13238215837359      3.41342655709205      2.98181210278786
  H   4.03723483514210      0.66555462418937      2.25588935618946
  H   4.96977370659187     -0.97532182274035      1.26888723900604
  H   6.28646974260138     -2.60642265032917      0.38683293696786
  H   5.62144047007014     -2.55678886881761     -2.77969386269302
