27
Coordinates from ORCA-job 14405optt
  Br  0.96880191042881     -0.13929934406363      1.22539268575314
  C   2.75356645505788     -0.10357106836076      0.62787355444688
  C   3.33234595433625      1.09611793825318      0.21058103754911
  N   2.52989419978255      2.24240547948548      0.15094999160211
  C   2.85537634295981      3.28058185598851      0.78851401750423
  N   3.95781910316891      3.39437630696175      1.66431049151886
  C   5.03055844630011      4.09377456885173      1.01133998731401
  N   5.06294511615577      5.34052590368799      0.84341813044861
  C   6.06686646654147      3.18268029153750      0.41897164778564
  C   5.51875870966073      2.23848272357933     -0.68276560812875
  C   4.88163103542187      3.05009754428939     -1.82697109809655
  C   4.58783149490683      2.20571841721759     -2.98281430275237
  N   4.37706450853831      1.53006577591513     -3.88363345109950
  C   4.68247170486046      1.06108386021692     -0.19514300149764
  C   5.31176508828182     -0.18287590462440     -0.16618940996031
  N   4.75837143119373     -1.31776100846466      0.23749654734455
  C   3.49539306694083     -1.27411267751012      0.63405658315978
  H   2.28300968382851      4.19288933536366      0.64534862707146
  H   4.26659049401547      2.46596304131064      1.93690117606237
  H   4.28100110291174      5.79668054568358      1.31475022967971
  H   6.50563601260507      2.56711562572714      1.21001493052299
  H   6.85560195039386      3.80375462863407     -0.00304010601028
  H   6.41168816067472      1.77905395543965     -1.11095213651933
  H   5.57578449120541      3.83322914478618     -2.13813604911463
  H   3.95892419799024      3.54306271630300     -1.52463647237804
  H   6.34467310879463     -0.25318004424871     -0.49411571963247
  H   3.04362976304414     -2.19985961196017      0.97047771742644
