30
Coordinates from ORCA-job 14400optt
  Br  1.90322266891016      0.35506167956154     -1.09038361845109
  C   3.59099581959703      1.00886790028822     -0.47683762564251
  C   3.63211004700090      2.26016370111951      0.14453131163610
  N   2.48889330507733      3.04388047864652      0.30291116023657
  C   2.11790028787295      3.64718729904256      1.49316671222873
  N   2.56290735798299      3.22497692926201      2.60284426677852
  C   1.30544631975932      4.91031942618200      1.28338765658720
  N   2.01383487703288      5.91812329722575      0.51240435663478
  C   3.40492728540860      6.18030966747888      0.85830364927576
  C   4.50326366075100      5.27279419186111      0.22722048090714
  C   5.07429105558753      4.12902771506520      1.09404179200691
  C   4.89058895750463      2.75099452432215      0.51597623010625
  C   5.98806383891184      1.92568159257154      0.29709273889557
  C   5.81785062977372      0.69342410724128     -0.30713546795944
  N   4.62791203007220      0.24914547419558     -0.70808392058069
  C   5.61800922692009      6.17091503127110     -0.28567442416169
  O   6.78847973547377      6.02032930010950     -0.08711093713345
  H   1.79173239000329      2.99217056282476     -0.42468159134471
  H   2.24914503713580      3.82621753450162      3.36133269720993
  H   1.04508681503561      5.31394952700933      2.26444375945024
  H   0.36959439187994      4.68397784669472      0.76693102623453
  H   1.91188030128965      5.76159857562389     -0.48120178919859
  H   3.49674911759488      6.14741724174616      1.94667427167780
  H   3.60758342378505      7.21477094378596      0.56645402865717
  H   4.07222384276995      4.86071002595234     -0.69460951434854
  H   4.63091587778884      4.15832656237709      2.08856841023186
  H   6.14356682419985      4.30193393833491      1.21010531350716
  H   6.97855044227085      2.26352256747526      0.57211231411671
  H   6.66011402052375      0.03916069172332     -0.49583495908027
  H   5.26416041208553      7.02204166650613     -0.90194832847796
