29
Coordinates from ORCA-job 14408optt
  Br  7.09816575654739     -0.10782429816145      3.04362583368582
  C   6.60377336527280     -0.12575175808473      1.22988447056092
  C   7.47653611885516      0.10637348951068      0.22861993867204
  N   6.89466343604292      0.28232636010384     -1.08356109311872
  C   6.06928814156554     -0.86965025045578     -1.36271882759712
  N   6.59182273036071     -1.73833665896682     -2.36272970683440
  C   7.63922325108742     -2.40377894564886     -1.65126604526548
  N   8.84905650340905     -2.09945387417206     -1.78615872785816
  C   9.79996207454571     -2.70369633254106     -0.87022707655422
  C   10.52917078862485     -1.64327387239789     -0.04165702407429
  C   9.65406563450729     -0.83618265086532      0.94120743009696
  N   8.84022316424002      0.15771041826822      0.23137552638329
  C   10.50397601096797     -0.20639139725288      1.96074847526298
  C   11.23132894281212      0.28794930757354      2.77249257896795
  C   5.13013903769151     -1.18551119146446     -0.47799174368856
  C   5.21910706905531     -0.53906193285099      0.87046752169094
  N   4.27741355047739     -0.49352634191262      1.72024462653168
  H   6.29372920790663      1.10030794631272     -1.05372168220397
  H   7.03134765762109     -1.18112640520892     -3.09168855580359
  H   7.26332155656658     -3.11066185587407     -0.90567591565673
  H   10.54935212271509     -3.24313189137118     -1.45263710945603
  H   9.31557532655732     -3.42510113896875     -0.19802278395814
  H   11.29860059313985     -2.14786744117080      0.54451279121388
  H   11.04548890462742     -0.94378294660861     -0.70463286842693
  H   8.96931303724117     -1.52226969022739      1.44744421003895
  H   9.18865422414848      0.36899901558351     -0.69319935014941
  H   11.86082242220187      0.73765734347343      3.50256057705340
  H   4.46407572169816     -2.02813001158672     -0.61370471303806
  H   3.41680364951309     -0.86981299503458      1.32340924352503
