30
Coordinates from ORCA-job 14401optt
  Br  3.73890772758517     -0.53929652973887      2.22373923457237
  C   4.37635031770783     -0.69492456800127      0.45934061495067
  C   5.45776947953511     -0.01150281280459      0.03871523554883
  N   5.92290054830822     -0.24988098545416     -1.24368176628820
  C   5.68827551941230     -1.48720534996057     -1.81424450721099
  N   6.81314917980645     -2.01345177376379     -2.54167774083125
  C   7.80626427771915     -2.12615443068201     -1.50851811345490
  N   8.57778375956242     -1.17176842949855     -1.24421116738582
  C   9.34018197118075     -1.19173493447294     -0.01001641515414
  C   8.93086122352674     -0.00873774495848      0.88181111124391
  C   7.51758462882996     -0.04380549150041      1.50689017299076
  C   6.41332017880480      0.82762006698166      0.84679418856172
  C   5.73507363402544      1.78923130802612      1.81511408224253
  O   6.21581241221437      2.13462669122378      2.85453666365087
  C   4.60948687833397     -2.19592680652249     -1.46444810754934
  C   3.71653837680683     -1.69494536603929     -0.40843616273143
  N   2.55371075905245     -2.13541129940995     -0.13126883836351
  H   6.85272362514783      0.10734991418382     -1.42291245107745
  H   7.13854286935306     -1.33215343281038     -3.22449651618621
  H   7.70402738542491     -3.02752646463697     -0.89825996286459
  H   10.39847765077113     -1.08541087564338     -0.25352031507726
  H   9.20862858661230     -2.13612725601546      0.53354769065185
  H   9.65787895690742      0.02586689507133      1.69506942554548
  H   9.07013044586983      0.91304885918834      0.31119137530028
  H   7.59429752100148      0.31247462719886      2.53420733723872
  H   7.15749075145404     -1.07467860985879      1.56256607367684
  H   6.88975140913523      1.52354007731180      0.14038680781851
  H   4.78861724725862      2.22188729075419      1.44392622012133
  H   4.44288904396477     -3.17535210593169     -1.89024677842021
  H   2.26757363468727     -2.84365046223587     -0.80489739151935
