23
Coordinates from ORCA-job 14409optt
  Br  2.00822329182432     -1.50958777080875     -2.40397545585818
  C   3.06656850538182     -0.59237418043411     -1.14837267710917
  C   2.78633461051023      0.68071441162572     -0.81206646598383
  N   1.66694983527032      1.36117050802677     -1.33103858999628
  C   1.09250759777377      1.96510906958492     -0.38505914716244
  N   0.14558589766076      2.96313374301144     -0.43662189108070
  C   0.39439592726331      3.93846691867563      0.51360510064765
  N   1.55209958979893      4.19919118984054      0.96582918799033
  C   2.80333349591303      3.96919365069902      0.40833539600128
  C   3.65373330877859      2.94668030455906      0.11890262695607
  C   4.93982330133262      3.43663322526733     -0.31608099657761
  N   5.96556017787504      3.81880435544208     -0.66441802337227
  C   3.65551399382181      1.43169389505808      0.11656982973883
  C   4.62517016975490      0.83557228530818      0.83694955411038
  C   4.96234531346907     -0.58227714791342      0.83137859053692
  N   5.74897834745772     -1.18616261081378      1.62146178574017
  S   4.32122574809765     -1.57741421720001     -0.48838885515283
  H   1.38503011027889      1.80014747953683      0.65382412049611
  H   -0.49620324398732      3.08111681851283     -1.20588184268126
  H   -0.46793945272443      4.44611428792894      0.93615426411577
  H   3.26418480642816      4.94086234307471      0.24534429924148
  H   5.25790599689249      1.44739532448400      1.47185006661034
  H   6.14467267112825     -0.54718388346601      2.30969912278925
