22
Coordinates from ORCA-job 14410optt
  Br  0.90591958449969     -0.30563005778597      0.00002758943648
  C   2.76451365539735     -0.28897438321902      0.09984557634802
  C   3.52634485915959     -1.40215793985785      0.09431285163789
  N   3.00492845416874     -2.66427744793013      0.09098177866867
  C   3.80481970524562     -3.67297721905091      0.02632769849348
  N   3.20216009633449     -4.90974188286502      0.06106346631250
  C   3.62669394795930     -6.09943822989229      0.68921286841624
  N   4.67605047221859     -6.32869593363379      1.35125505136112
  C   2.64344151547593     -7.14791851211388      0.51364799908587
  C   1.79877046904235     -7.98198192521892      0.36427373113789
  C   5.28371386252213     -3.54649848903641     -0.21999654451407
  N   6.02889313085739     -4.48001787318780     -0.66246492390355
  C   5.81452601672184     -2.21560019552464      0.00042879539986
  C   4.96109177788586     -1.18902471719285      0.12893538809211
  O   5.41349734987662      0.07983291489483      0.26521210526436
  N   4.53313510977323      1.17875854184827      0.27474183126240
  N   3.33101326204924      0.97910818094076      0.18705566951835
  H   2.19750450696188     -4.84352036357310     -0.04866220156543
  H   5.28797723162552     -5.52046645543987      1.43728186784536
  H   1.05817883485507     -8.73694442026062      0.24025705781361
  H   5.52370556646669     -5.35166002700974     -0.80894386013027
  H   6.88412059090285     -2.07117356489097     -0.04379379598090
