22
Coordinates from ORCA-job 14414optt
  Br  2.48793339161687      0.29663764732501     -3.18817661745851
  C   3.11590795531398      0.61297142473307     -1.44964155013452
  C   3.72240581392389      1.76986168371331     -1.08613206718597
  N   3.39309472643897      3.00561843188363     -1.66185306873516
  C   2.06261974354070      3.30028641325921     -1.11438077742522
  N   1.01962845378499      3.40721758682583     -1.79360440029825
  C   2.05056672352153      3.42591768188930      0.39263468216803
  N   1.45883871777463      2.74034607763063      1.25886034847508
  C   0.49856995515435      1.75471632253608      1.28990119149484
  C   0.61314085938208      0.45902930636647      1.63523240932075
  C   1.84766076185027     -0.34583000811527      1.77720167189071
  O   1.95880508949629     -1.28487287219395      2.51592900838407
  C   2.92396319248189      0.04892600836609      0.77708191437261
  N   2.61932309439346     -0.15254281979244     -0.44865323086161
  C   4.06014999960845      0.91186256777060      1.14492424287079
  O   4.69877585477896      0.94691217969616      2.14027632520536
  O   4.31516566071216      1.83510183635204      0.12197023124332
  H   4.07465300239041      3.72506217788977     -1.43624689204198
  H   1.22155203302065      3.30193562175487     -2.78989713126165
  H   2.72734229431925      4.19924895196520      0.76740371920230
  H   -0.50196164030681      2.17400171473186      1.22757356945620
  H   -0.29913568319702     -0.07440793458749      1.86559642131882
