23
Coordinates from ORCA-job 14412optt
  Br  0.98091815283518     -1.74180291494816      0.43627722120771
  C   2.52093086159866     -0.69253325504884      0.20088237622329
  C   2.47061343259232      0.65089581539301      0.31129583622702
  N   1.39882689643803      1.41160182606724      0.73654088289367
  C   0.29807993468813      1.58392473014976      0.13265521211892
  N   -0.47933433809556      2.63329733981952      0.56587497299539
  C   0.18289066718766      3.73685230813439      0.65251281030290
  N   1.29047588040500      4.06924844268652     -0.04783238611580
  C   2.45390808834580      3.74758140332223     -0.40726221963453
  C   3.58156216343481      2.85605858422567      0.03731920288720
  C   4.83431996052673      3.64720549151339      0.02048258645199
  O   4.85520816962039      4.84650624006249     -0.09786169348398
  C   3.65278259870846      1.49556525941455      0.18572658468393
  S   5.23543356506722      0.71874801696561      0.35806157996313
  C   4.94810401783158     -0.98759837703825     -0.01118358845479
  N   5.89067804290167     -1.80468443325664     -0.20854365768599
  N   3.64833246971147     -1.43645363925273     -0.03339562210703
  H   -0.05594851600061      0.98453684593668     -0.71004378576880
  H   -0.26610929266239      4.57726787628157      1.17459045303882
  H   2.82219514105448      4.33976526842601     -1.24908409997773
  H   5.78029725218657      3.09363306849089      0.13071831403361
  H   6.80785423077982     -1.37057838630488     -0.19783310189209
  H   3.55398062084453     -2.43003751104004     -0.19289787790684
