28
Coordinates from ORCA-job 14416optt
  Br  0.97440308111593     -0.34852861689048      0.06637307442390
  C   2.85740189741046     -0.24689034937544      0.24535522433941
  C   3.60852793358681     -1.41740971115919      0.37423512361978
  N   2.97039173492609     -2.67082961836369      0.52191696352094
  C   2.16714184181472     -2.91158960610997      1.63481479981779
  N   1.48791913922806     -3.93811066544275      1.91524745284218
  C   3.16201941498611     -3.70792525132146     -0.44921795701622
  N   2.25805521610144     -4.07756586176639     -1.24207995370103
  C   4.48414297765158     -4.41029414668072     -0.38207933609855
  C   5.69614575013232     -3.48826626352944     -0.55937485358743
  N   5.79808585914776     -2.47332613245202      0.49996617337815
  C   5.00746641517848     -1.31568784884706      0.39644827215409
  C   5.60182439231980     -0.05750900869379      0.35667479519705
  C   4.83186767955645      1.09092159118009      0.29964120464618
  C   3.45097434731861      1.00509359166055      0.22964383289221
  C   5.72038431988542     -2.90108180427014     -1.90827057613332
  C   5.71118572047375     -2.40379445498047     -2.99705651152877
  H   2.18262505589189     -2.07045783568451      2.32635551294119
  H   1.52778428302024     -4.65344610108840      1.18975221637724
  H   1.42020561146802     -3.50438153101561     -1.12107875860166
  H   4.50295493035233     -5.18155633165324     -1.14924701258983
  H   4.56576084155514     -4.87109599456082      0.60641040014957
  H   6.58012624582206     -4.11805097155255     -0.44833475495314
  H   6.76693065398578     -2.21434833398535      0.62645898500402
  H   6.68292094033019      0.01134893445780      0.37162590236546
  H   5.31085397856596      2.06083999808228      0.28124091049425
  H   2.83850372328344      1.89124616710163      0.14854590785189
  H   5.70439601489108     -1.96630384305885     -3.96696703780535
