24
Coordinates from ORCA-job 14426optt
  Br  2.88074839192018     -1.75464966130538     -2.56736638437553
  C   2.46341923423776     -0.87263889598537     -0.96005064991263
  C   1.52243143953514      0.14339601134925     -0.95373469189539
  N   0.95847997005011      0.76340390673164     -2.07243492662124
  C   0.66500107317858      2.11484012920697     -1.89407243383342
  N   1.41247474836338      2.77145131679110     -1.12559868975268
  C   1.07520082256111      3.84770865111313     -0.32653792878318
  N   1.06241376948489      5.07298065986057     -0.66710898888106
  C   0.77524192210647      3.56546194122408      1.11631438701490
  C   0.97679991323714      2.65923992336480      2.08581215718373
  O   1.62605740590117      1.45727185336659      2.25947983097105
  C   1.87592731725912      0.59325244070498      1.24678577965711
  C   2.87933188970659     -0.36803066238560      1.37056968677448
  C   3.12798836861736     -1.15571977662714      0.25023782033374
  C   4.12004769663909     -2.18131937294545      0.32419378618853
  C   4.95347058050836     -3.03718259524153      0.41354475819669
  N   1.15339042938336      0.71392328877191      0.18263616219360
  H   0.75880028134296      0.25609985152934     -2.91774840390910
  H   -0.26371314344204      2.47738992916178     -2.34383282752028
  H   1.30246836641593      5.16591679863891     -1.65345146964181
  H   0.28546473846057      4.44064467977976      1.52811348263131
  H   0.61004002000228      2.94028483267304      3.06398161522788
  H   3.44984173858073     -0.48968472215355      2.27840063302752
  H   5.69367302594974     -3.79804052762384      0.48786729572583
