27
Coordinates from ORCA-job 14428optt
  Br  1.01925510143379     -0.04720504033490     -0.42052207826601
  C   2.89647684002942      0.01521698384809     -0.27643075670389
  C   3.62299143789042     -1.08911208533976      0.15738689301234
  N   3.01110357615779     -2.29271762076174      0.57361263804970
  C   2.24804510468641     -2.29741378631187      1.74531017307566
  N   1.90460440889660     -3.29653378041848      2.43557368532174
  C   3.29628605168677     -3.52346751720185     -0.05682743534143
  N   4.36942706456786     -3.95853674481792     -0.54165584223433
  C   5.66699818112379     -3.32970905520728     -0.43398804145278
  C   5.83382780024205     -2.18596407848376      0.55835523756594
  O   5.44662596952203     -2.67537910269338      1.83892207642005
  C   5.61115077806053     -1.80827106177746      2.87404527731735
  N   4.99819719226803     -1.88396232193786      3.96170937834301
  C   5.01561538324587     -0.98304285974331      0.15579528135916
  N   5.66965013650071      0.10469023924543     -0.22471166869297
  C   4.95524526406241      1.16025095929180     -0.60620574810520
  C   3.57130275153581      1.16808077786713     -0.64821357817275
  H   1.95888283819372     -1.29802633819060      2.06364238675615
  H   2.27538902273561     -4.17682262078244      2.08088815919394
  H   2.40990889746945     -4.15477932845908     -0.11745563907951
  H   5.96710606583144     -2.97403522868870     -1.42304872691843
  H   6.36539337979006     -4.12438223855700     -0.16300247716041
  H   6.88317040402305     -1.87809546139087      0.57173746725125
  H   6.35013985975817     -1.02593873071981      2.69204315807999
  H   4.32397770591687     -2.65227063432282      3.95552601915423
  H   5.51427671761745      2.04298514792764     -0.89356828276042
  H   3.02895206675382      2.04244152796085     -0.97791755601237
