24
Coordinates from ORCA-job 14422optt
  Br  1.67189871671714     -1.48063674863046      1.38237491032647
  C   2.48086092714707     -0.08217491628410      0.40584014466370
  C   1.96120607889272      1.16768743721824      0.46513531713029
  N   0.82187205086463      1.53947784069714      1.17084592294068
  C   -0.30901496112650      1.12659351528919      0.78831885524852
  N   -1.47098139204773      1.72579028079442      1.25520608538453
  C   -1.82530413405277      2.76252645957131      0.61330184748741
  N   -1.26252723812181      3.17376075917566     -0.59334061132471
  C   -0.09635489841771      3.62091893347463     -0.76946440517070
  C   0.86304900419058      4.08444968237032      0.29070775800380
  N   0.56718311402949      4.96834196570599      1.14976218109362
  N   2.17028058422551      3.65069419653033      0.16908571364661
  C   2.58463286204464      2.33205121152378     -0.18505736075195
  C   3.62187781243463      2.20747231095273     -1.02342796750841
  S   4.42500857648811      0.73852558404087     -1.40119422034641
  C   3.67749413632859     -0.47853549324915     -0.34085329224012
  N   4.14510067747303     -1.65446464241260     -0.29433389880653
  H   -0.44483845671628      0.34189632764020      0.03635332165079
  H   -2.72056995249369      3.30286386362940      0.90919135355126
  H   0.24489915197834      3.75407235627602     -1.79743354380660
  H   -0.39607371548424      5.27860329723536      1.05511887425956
  H   2.75224363408792      4.09332272482899      0.87059522446759
  H   4.04316527890403      3.08247409493485     -1.50108167766085
  H   4.97489214265427     -1.77771104131315     -0.87065053223856
