24
Coordinates from ORCA-job 14421optt
  Br  1.98348229973170     -0.10160670387008     -2.59986491679459
  C   2.96594314113495      0.45496690036020     -1.10842167411961
  C   3.58728748138689      1.62831887719254     -1.02128002565631
  N   3.43371887781159      2.69190854334059     -1.89745084954935
  C   2.27121111838745      3.45515788722280     -2.00597960644997
  N   2.07941936082119      4.09388318389748     -3.08209653790033
  C   1.36166523464930      3.60082022840119     -0.78251912518414
  N   0.99820007127401      4.75114884426806     -0.39327119117807
  C   0.93832166967184      2.40183518059866     -0.02582084589329
  C   0.77812056165242      2.42755281426563      1.29671097343558
  N   0.73282582700865      1.25932783125707      2.07573594475924
  C   1.60779003171138      0.18134153798663      2.03422293186225
  O   1.41445874639434     -0.81815749943072      2.67293304619449
  C   2.80291162989287      0.41310654386372      1.15115330068869
  O   2.85274802594015     -0.35116392249989     -0.02119577045185
  C   3.59386828226210      1.46563338688520      1.24726140670741
  O   4.30909758983937      1.87621287739790      0.15128705946174
  H   4.03148249184934      2.76062179484252     -2.71020978269988
  H   1.23214467713576      4.65310099207887     -3.03704338235345
  H   1.41673934095245      5.48780710035115     -0.96158632011796
  H   0.86046568209976      1.46035962726708     -0.55030325185161
  H   0.77292172954329      3.36757507234205      1.83797684434941
  H   0.05873128980658      1.19834666662513      2.82737315272555
  H   3.62944483904259      2.12790223535621      2.10038862001607
