24
Coordinates from ORCA-job 14425optt
  Br  2.12866171677049     -1.06738930317126      0.95305698377508
  C   3.43426400156870     -0.00782349722217      0.10854420053542
  C   3.54071690850517      1.34490115431724      0.33980238945792
  N   2.69939472203165      1.92367920748912      1.26710063111424
  C   2.12120227683553      3.18633985971147      1.39117767657673
  N   1.08995466305999      3.38842694742891      2.09692539493807
  C   2.70673374947157      4.40882705524653      0.71314071808004
  N   1.98550773371630      5.43465152557850      0.54106149360553
  C   4.11861443948715      4.48250750557497      0.31451996425457
  C   4.73491956638508      5.84837125286533      0.32240999763208
  O   5.86484578734987      6.05954179762265     -0.03240758698243
  C   4.88227714180139      3.48341059781377     -0.14552738197440
  C   4.59600477790632      2.08070866184140     -0.31459564067407
  C   5.44455432869692      1.37640098679052     -1.12111152862070
  N   5.30429942908446      0.06300022101725     -1.34779817814152
  C   4.31406327546201     -0.74227702416932     -0.77361632844162
  O   4.26544204383528     -1.92292728315184     -1.03636148037128
  H   2.16185746200020      1.22647579519781      1.76776300952270
  H   0.71464817073074      2.54505808967611      2.52573951628049
  H   1.04442447784764      5.26078429978787      0.90108066172973
  H   4.08087439480294      6.65262258950532      0.68703566725557
  H   5.86651243742617      3.79593110208934     -0.48598201439735
  H   6.27269703042496      1.86655984292187     -1.61469789047836
  H   5.94152946479939     -0.42878138476142     -1.95926027467644
