24
Coordinates from ORCA-job 14430optt
  Br  1.07114857031953     -1.13212123364063     -0.29138679799598
  C   2.94471321130470     -0.92395637836882     -0.29653040507371
  C   3.66111374447357     -1.18507332691340     -1.42248699529860
  N   5.02062150600291     -1.02134884162269     -1.37534612140920
  C   5.78188208180815     -1.13950890952377     -0.20568189577190
  N   7.05217238036726     -1.13096069907623     -0.13640452166059
  C   4.96140908683197     -1.37936731034677      0.98231912019202
  N   5.51745681829633     -2.28743643535270      1.96449981951708
  C   4.99892794187297     -3.48656216503536      1.34565025752023
  C   3.67209749734886     -3.96746635935444      1.92531387315647
  O   3.19602357030418     -5.01052819865402      1.59747622225492
  N   5.51714935550531     -4.02463609084690      0.32510161254485
  C   4.84287556412859     -4.33917776770358     -0.82429772249997
  N   3.84551696066939     -3.60558143702287     -1.13352574142455
  C   3.32917867596897     -3.16838901112146     -2.32887815329567
  N   3.18511715955055     -1.90443905294062     -2.53899231842412
  C   3.63479824907622     -1.09434141623599      0.94574623987905
  H   5.50839682297481     -1.21579015948971     -2.23921043231155
  H   7.50534413943808     -0.99167611299444     -1.03575434092343
  H   6.53218973707361     -2.25250460403398      1.86744301686771
  H   3.23658606531462     -3.32184728689093      2.70370276355412
  H   5.33863337120326     -5.05624841636083     -1.47969427139783
  H   2.98471467804806     -3.86012012187525     -3.09695988454599
  H   3.03693281211802     -1.22391866459456      1.83889667654665
