29
Coordinates from ORCA-job 14438optt
  Br  2.02334367023791     -1.28612986219769     -1.30136122967533
  C   2.81688753294222      0.07903686512025     -0.29081981822970
  C   2.38846060027813      1.35482526924355     -0.38555313441705
  N   1.33998102629842      1.77841816705518     -1.19982272917055
  C   0.21334125035288      1.81055163079172     -0.62628717385138
  N   -0.87685369178990      2.43657784708751     -1.21504801779137
  C   -1.53372966296501      3.50179469902807     -0.56996237522411
  N   -2.50509361706156      4.13360039931952     -1.07548135577210
  C   -1.02471729863750      3.95633521365104      0.79562868801951
  N   0.38913310232019      3.71633313238111      1.01255323505028
  C   1.31286295895702      4.40031528035522      0.12969202811577
  C   2.75722626271717      3.88814501241206      0.25788138746383
  C   3.02363351017723      2.40249929122772      0.41350050613968
  C   3.96635879019792      1.99474693128968      1.26992968799706
  O   4.37865710873336      0.71994476954414      1.40569993700368
  C   3.88154304948682     -0.30805054483397      0.62603555961514
  N   4.32602614541601     -1.47961480911827      0.75579725903829
  H   0.02860835106245      1.38345571593748      0.35448656875011
  H   -0.77277914267548      2.56971819837942     -2.21361201751226
  H   -2.81316620701464      3.72158109804117     -1.95550759615848
  H   -1.32422341036934      5.00757036425082      0.86430387337936
  H   -1.58166221632412      3.41017950409288      1.56118792386682
  H   0.63873938247140      3.81590808065587      1.98675685151918
  H   1.32430868433458      5.48706188032293      0.28820027026533
  H   0.96953882526466      4.24532734216076     -0.89387923094896
  H   3.23095560655607      4.37904611019394      1.11186149210388
  H   3.29062509993018      4.24729702689919     -0.62682953323799
  H   4.50626065724862      2.65574341192528      1.93457340660901
  H   5.05173363185431     -1.51321802521662      1.46807553705233
