28
Coordinates from ORCA-job 14436optt
  Br  3.50276034589214     -1.72357641306560      2.48400623666142
  C   4.72718717363677     -1.81361689089381      0.96450659548370
  C   4.07176141264200     -1.95581504384024     -0.28237620175841
  N   4.55595319530734     -1.50876968071839     -1.42134015848086
  C   5.42973532954790     -1.41721379893941     -2.32938987002527
  N   6.61467468502835     -2.13250523329745     -2.39041696014155
  C   6.60520359640954     -3.24943074242572     -1.77862324138864
  N   7.70094540834042     -3.93405086945832     -1.33384672360454
  C   7.62196667757232     -4.16431028155198      0.10345352590930
  N   8.23263139546428     -5.14197898580725      0.59779341962614
  C   6.84986621307642     -3.05436996430503      0.74067927551701
  C   5.53397340802443     -3.06517465107475      0.98267569032760
  C   4.68786915098212     -4.34188988133389      0.98303196686035
  C   3.22017612579761     -4.17489874406723      0.49466992504522
  C   2.91267738389920     -2.93916849256735     -0.42932818413212
  C   1.58555365782230     -2.38206451352654     -0.20403842930849
  C   0.48144927896992     -1.94479774429191     -0.05310552177951
  H   5.29604999703079     -0.65676763495376     -3.09293093212994
  H   5.66645524744147     -3.73051346233220     -1.50083817224498
  H   8.59653055257666     -3.57138324172394     -1.64190759636152
  H   8.14470289442113     -5.12570414420541      1.61331420299773
  H   7.34843601117048     -2.08999284050745      0.70505073759475
  H   5.20600529770081     -5.10917156987212      0.40011161011082
  H   4.64781033660730     -4.72705582688764      2.00362179885657
  H   2.56688513470508     -4.10517226461367      1.35853193136725
  H   2.92291700693522     -5.06761783234572     -0.05530048503853
  H   2.94197138085936     -3.25643828835750     -1.47612050478231
  H   -0.49114829786150     -1.54155096303566      0.09811606481883
