21
Coordinates from ORCA-job 14432optt
  Br  1.22347235582540     -0.51392823887035     -0.73265929432444
  C   2.98894801961570     -0.09321683132293     -0.31484477053561
  C   3.53534239392219      1.11836276609990     -0.12131771221663
  N   4.95817090980900      1.16680945680234     -0.01965687158701
  C   5.61275346785602      2.36387038633345     -0.24296055844102
  N   5.03963506225970      3.48965238761086     -0.35546883782402
  C   3.67139434036285      3.55461370292493     -0.11085973744679
  N   3.15761381662556      4.81583453816400      0.01758888602488
  C   3.79178305309388      6.06880444669806     -0.03562636508064
  N   4.99169771923913      6.38398381519793     -0.23366680675871
  C   2.91756176203333      2.42699937960873      0.02012905005498
  Br  1.12097586301685      2.60251083942427      0.56323441650179
  C   5.75831962523021      0.03560562409062      0.16731409474140
  O   6.94161929174060      0.08982894976890      0.31731648506847
  C   5.02624561376871     -1.29733307195168      0.10465568176846
  O   5.56978749469905     -2.32696626804747      0.30969794081416
  O   3.73033486805050     -1.24507545935959     -0.27513408609585
  H   6.68779633322197      2.27051106838465     -0.32837795878396
  H   2.16693410408122      4.85510368327482      0.19902594226618
  H   3.05431467768219      6.85361089365364      0.12951606234692
  H   5.58229922786584      5.57041793151489     -0.37990556049255
