26
Coordinates from ORCA-job 14442optt
  Br  1.00231105828390     -1.60820336907632      0.44405420223453
  C   2.85226120199980     -1.40104703376383      0.16800047560678
  C   3.39117966849049     -1.66664049737107     -1.04524690982723
  N   4.74314315564923     -1.47902749528366     -1.20847761781974
  C   5.65227045435290     -1.22154314556229     -0.18540770846620
  N   6.88254314787893     -0.93409111306153     -0.32818542754189
  C   5.06386180705540     -1.46797375299774      1.13666382624810
  N   5.92227771856349     -2.17193935198658      2.05086056254142
  C   5.67864215433553     -3.51395921315415      1.58870103226534
  N   6.38972676867705     -4.02812492514175      0.68647452520873
  C   6.13420716783459     -5.03458502208317     -0.20467380101722
  C   5.05855077885061     -5.15120527798105     -1.02177232983552
  C   3.80276865385768     -4.41572579200332     -0.82926044254627
  O   3.32943182895813     -4.25576654471651      0.27753612036372
  C   3.06765668208516     -3.83305261276803     -2.01961870488889
  C   2.78297362472689     -2.53184741640005     -2.09247698332136
  C   3.72666721017094     -1.39436314477755      1.30599200758927
  H   5.13315183906818     -1.70783634083926     -2.11133462481205
  H   7.16172561579837     -0.84614550596979     -1.30207933300091
  H   6.88240464020603     -1.92159365694082      1.81577588733412
  H   4.77720204506446     -3.96966236148967      1.99087243282051
  H   6.99837899148581     -5.65680553912362     -0.41416605221967
  H   5.14881816641717     -5.78944711642321     -1.89240634348592
  H   2.73848836063426     -4.51895296197066     -2.79328474514970
  H   2.18652549707563     -2.11841858924934     -2.89630386359240
  H   3.29983176247932     -1.57904221986501      2.28376381531246
