26
Coordinates from ORCA-job 14447optt
  Br  2.04925128490200      1.36374674030223      1.52360762526090
  C   2.87597566897798      0.02748448531582      0.46847667358523
  C   2.28725253874733     -1.19121992119931      0.32709759188479
  N   1.12682129036721     -1.56180933707602      0.98919782034401
  C   -0.00935066880148     -1.15113599984872      0.62576649093583
  N   -1.15185967254360     -1.74422361332305      1.11018424152745
  C   -1.19009643547459     -3.05887905285138      1.60290975096439
  N   -2.06800090873921     -3.53764862250183      2.37286253257806
  C   -0.08037670754315     -3.93125159938310      1.09649794502633
  N   0.27067135411914     -3.81719911485594     -0.10320890883302
  C   1.47139453613790     -4.41540187004261     -0.53168597321253
  N   1.57596926464907     -5.64502896412296     -0.85763023772162
  C   2.62984410200443     -3.54411599501786     -0.71544313395908
  C   2.96904483197251     -2.24709429462831     -0.44101088176594
  N   4.20245747281740     -1.83200247908537     -0.94826917881074
  C   4.76816262093452     -0.60996546196595     -0.79320755706205
  C   4.14098055896262      0.36036377097960     -0.10196707919363
  H   -0.17527941932016     -0.35728571719048     -0.10568695474352
  H   -2.02811298902041     -1.26015334487697      1.00054956737561
  H   -2.75668763749682     -2.84208565635172      2.65920993151279
  H   0.42324341159065     -4.55979929557228      1.83395417482449
  H   0.68563280188157     -6.12173422670732     -0.72450995735614
  H   3.39895329342307     -4.10295208860180     -1.23958189353668
  H   4.70891363719513     -2.52211116639775     -1.47937666693468
  H   5.73499729031625     -0.47616937485797     -1.25636314850292
  H   4.57519847994051      1.33767219986123      0.02662722581265
