24
Coordinates from ORCA-job 14468optt
  Br  2.85158475385016     -2.50029783483305      1.17450335233639
  C   4.21770781016131     -1.34051009806856      0.60762130871594
  C   5.41667502962698     -1.80615706711412      0.09115363515190
  N   6.32096383128974     -0.93839783441970     -0.32235116727061
  C   6.28052580323792      0.33841956610625     -0.06043811527219
  N   7.50938394712037      0.99707689832519     -0.29385968277510
  C   8.70884340726895      0.30860980759108     -0.30048022591762
  N   8.85074392415776     -0.80773210076457      0.28625566097500
  C   9.99040119417419     -1.62133056752771      0.03739782621919
  O   11.10434946451267     -1.17690265375596     -0.10094647444781
  C   9.69247861425339     -3.07331478188390     -0.07756157672668
  C   8.49953650391577     -3.69689191823579      0.05305705558752
  N   7.36259889211262     -3.04443997232594      0.47316296245867
  C   6.04479846547484     -3.21452728180089      0.07657452042614
  O   5.51281107149635     -4.24016364350760     -0.24419012906592
  C   5.12710010954351      0.90696902929586      0.48304098825214
  C   4.07819055521468      0.04300345190934      0.76367564476320
  H   7.50504573878042      1.93393087944691     -0.66109719186095
  H   9.50968024469856      0.79038929071623     -0.86563657231153
  H   10.54964342362863     -3.66875226282824     -0.35846431546327
  H   8.39754442101021     -4.75326547995706     -0.16514124746953
  H   7.59812698501535     -2.07250428442567      0.66804229182639
  H   5.05627917222290      1.96073841270858      0.71719277327375
  H   3.15998663723265      0.43105044534934      1.18448867859498
