25
Coordinates from ORCA-job 14466optt
  Br  1.13531795679168      0.30578824281169     -1.15568665799867
  C   2.93904198012329      0.17438908454601     -0.59491410787878
  C   3.53782373633266     -1.08771944870678     -0.49308564659765
  N   2.80984693038890     -2.27066414251159     -0.77599524232595
  C   2.24851578207795     -2.99576313327758      0.30844343650415
  N   1.42932567729738     -2.54215630678269      1.15158531123180
  C   2.90481135221570     -4.34665663513824      0.52870383265133
  N   4.29629323528999     -4.02203165080630      0.86026441616897
  C   5.07470790644457     -3.58622672090468     -0.19010114552796
  O   5.07507653080932     -4.12888555560946     -1.27267092859360
  C   5.79877310022242     -2.28271515358777      0.04648632843983
  C   4.89020160847801     -1.06729365108352     -0.10822190484697
  N   5.51940464060429      0.07821936188868      0.14697851195075
  C   4.83200663883839      1.20564190728967      0.03164727240244
  N   3.55208323905741      1.30077240315415     -0.33542946191587
  C   5.52157657249218      2.43337324090269      0.32509869552644
  C   6.09777378707616      3.45232324215218      0.57139929960470
  H   3.27674026894806     -2.86233257441680     -1.45033392701508
  H   1.12574831369833     -1.59671585647612      0.91631163478949
  H   2.90211244327008     -4.97223767717406     -0.36218108177780
  H   2.42117653037847     -4.86453081821866      1.35078739950402
  H   4.36215029478026     -3.44204017838858      1.68702859166139
  H   6.60738280624268     -2.18271117494163     -0.67657214117262
  H   6.23480120236072     -2.22880960192928      1.04600335250553
  H   6.60930746578105      4.35998279720870      0.78845416271011
