25
Coordinates from ORCA-job 14467optt
  Br  1.41204677317825     -1.19651711098279     -1.76317225088716
  C   3.13626260727884     -1.10421201194563     -1.01120265327548
  C   3.35445429303488     -1.24370009639313      0.32490070204385
  N   4.62199786447295     -0.95488661932806      0.77404389870310
  C   5.73427995783690     -0.87351274042952     -0.05377944195458
  N   6.91342932844279     -0.53686319371761      0.26595688007198
  C   5.37430500194363     -1.33537475519062     -1.41301886491946
  N   6.34174087364682     -2.09112461559922     -2.08501141497205
  C   6.76933589524048     -3.30628758851282     -1.55324955062464
  O   7.57988383276224     -3.99137921751640     -2.11974404649041
  C   6.15263701661395     -3.73303580546930     -0.24301719625363
  C   4.83970990725217     -3.70454316971051     -0.00535576436090
  C   4.18130513092431     -3.97401844065826      1.28262581777607
  C   3.16475692144967     -3.26854055559968      1.80559583839791
  C   2.51185133733749     -2.03377589529874      1.26988108173767
  N   1.33269067512482     -1.76050909174596      1.64452077381395
  N   4.18289107610869     -1.23772534462003     -1.87376409329024
  H   4.80270329734099     -1.07765051236830      1.76061950573498
  H   6.98697813832527     -0.25116580103883      1.24039096008539
  H   6.46794971999193     -1.97914351504806     -3.08113748974090
  H   6.86443536653776     -4.08426547770300      0.49564352552348
  H   4.17587753848924     -3.39031222339782     -0.80162544264338
  H   4.55072021328711     -4.81617940118744      1.85936574649261
  H   2.71958831402042     -3.60685181709833      2.73415069264782
  H   1.00016891935832     -0.89342499943989      1.22238278638403
