22
Coordinates from ORCA-job 14463optt
  Br  1.31993978946547      1.45926187744743      1.02186585584034
  C   2.89001836142590      0.69461475550106      0.34533648718018
  C   3.12815787478037     -0.61517711521199      0.44107886357784
  N   2.23255602751767     -1.55412986570389      0.97859255197947
  C   1.76094425581544     -2.49089560975326      0.00050884116614
  N   0.72909743744382     -2.32874502800473     -0.69371375442743
  C   2.63047677191508     -3.69935866707324     -0.21465032255923
  N   2.28615155051026     -4.73580301948077     -0.83718659997591
  C   4.04312983631426     -3.63119325413919      0.34747722568193
  O   4.51955459699693     -4.53856745989996      0.95997368499544
  C   4.87485978712983     -2.39555446831184      0.04651464118646
  N   6.12761972677260     -2.55037240066868     -0.15115398422587
  S   6.85391376575563     -1.08616599182367     -0.56641209279843
  C   5.36025072828107     -0.17385065124800     -0.38153508236255
  C   5.09798772316603      1.12616684581559     -0.42535744652282
  N   3.74905978657999      1.58767911311689     -0.29605658621292
  N   4.34162090778647     -1.12861648857420     -0.13300750527197
  H   2.60180095780736     -2.01158153243292      1.80841526794426
  H   0.24562293252562     -1.46831670902210     -0.43092195647864
  H   1.32227979341787     -4.62560609985203     -1.17038409865285
  H   5.85256907446459      1.87465088989606     -0.60102023772187
  H   3.66838831412768      2.53256087942346      0.05063624765846
