22
Coordinates from ORCA-job 14477optt
  Br  2.68191995838493     -0.52992236171789     -2.94383181800422
  C   3.09971629021625     -0.18801522590775     -1.15339541799986
  C   2.34691755393523      0.59543012084237     -0.34458773675924
  N   1.26431272936403      1.37728242901036     -0.54319174702628
  C   0.50347050207695      1.85959869214005     -1.45049978443316
  N   -0.27650474238639      2.94033179581517     -1.18536820287977
  C   -0.15910990597847      3.54095130331046     -0.02532897882352
  N   0.51519489190421      3.14606406076578      1.07243058716906
  C   0.76989491245328      1.73267527426032      1.40130628729196
  O   -0.17023542806715      1.03701379712219      1.67863513061331
  N   2.08378793523672      1.46304369494951      1.85007077273863
  C   2.79973991537383      0.77720861958013      1.04151863470968
  C   4.08061675210131      0.18239378982185      1.35769991203151
  N   4.74671569995035     -0.55323923612445      0.53358116597815
  N   4.24621756710426     -0.75315665571022     -0.68781911840086
  C   -0.79100657904119      4.83169291499428      0.10134706846868
  C   -1.30411825391554      5.90370017111510      0.24319271534122
  H   0.45814033863376      1.48987692110682     -2.47378773251768
  H   0.45384964611428      3.76335613456349      1.87184797019084
  H   4.51783872752232      0.32581860664010      2.33680356280479
  H   4.80316179207217     -1.33997011121538     -1.28790028019065
  H   -1.76852030305517      6.85486526463770      0.35527700969740
