25
Coordinates from ORCA-job 14472optt
  Br  1.02089168065554      2.24558279752744     -0.52477241392635
  C   2.80687338793054      1.72081253257573     -0.26021410584843
  C   3.30528944961817      1.35264660614871      0.94864940625857
  N   2.74917683168965      1.90731117083334      2.18425138749024
  C   3.19118529263877      3.21462404958674      1.95811036049289
  N   2.47903359105554      4.24910087423137      1.71515103178050
  C   2.97434481316115      5.05973388424885      0.73326745735032
  N   3.63947292502558      4.49022243928293     -0.21292203970377
  C   3.91212682681122      5.03634862768263     -1.44605023658041
  O   3.34699188074043      5.97443641103588     -1.95560750570268
  C   4.99231546617540      4.26616783066056     -2.26548115679665
  N   5.38120997380824      4.75800515771557     -3.36381722821731
  C   5.64057449055471      3.07201669934810     -1.67589370098935
  C   4.99300964287867      2.04825877489674     -1.10314172824725
  N   3.62172481882203      1.80237494970681     -1.34398531741884
  C   5.51124655787339      1.17292928972549     -0.05318799625560
  C   4.67831408207519      0.87532430284302      0.95991077740953
  H   1.73541467378164      1.85238153127932      2.22103562724772
  H   4.27557002224315      3.26711685344637      1.85175068614866
  H   2.70948993106938      6.11626284405247      0.74755718506405
  H   4.86221494747339      5.62520063254097     -3.53706869289466
  H   6.72131194167557      3.10392829436573     -1.60777603097547
  H   3.22685474457710      2.08897071970849     -2.22648910751146
  H   6.55849214424039      0.90216442492107     -0.03647303083978
  H   5.02086988342511      0.34407830163564      1.83919637266554
