20
Coordinates from ORCA-job 14479optt
  Br  4.04741874958934      0.16640453249272      3.19215958187708
  C   3.86341254380149      0.19007351987129      1.32862752623453
  C   2.85284055569042      0.89110002737980      0.74507070055118
  N   2.00925096626696      1.71556482185384      1.50726194806944
  C   0.97236532330179      2.26081788767976      0.77227303304604
  N   0.91185746134961      3.49050280834629      0.47739710924050
  C   0.28752144686471      3.78987178242396     -0.72848549393139
  N   0.29958484674592      3.06411591172090     -1.77316510251362
  C   0.74326837656555      1.72083498600299     -1.70794728363950
  O   -0.03651012786880      0.81830934217151     -1.85634980571948
  N   2.10008878204512      1.51147028092152     -1.57828483392793
  C   2.84069606230870      0.92186893018164     -0.72592725055198
  N   3.93938752762598      0.24117589124722     -1.23236505201317
  N   4.89807193587281     -0.40526186902929     -0.59588874477275
  N   4.86463223246220     -0.46396156056587      0.66271292080514
  C   -0.24887742304630      5.13809921277852     -0.82550427616077
  N   -0.67998644231760      6.19715264611869     -0.87520544924126
  H   2.52286814695317      2.38665263033017      2.07353286941539
  H   0.27089661127879      1.51381770487919      0.40346414630728
  H   4.03921242451013      0.24739051319514     -2.24037654307475
