24
Coordinates from ORCA-job 14470optt
  Br  0.96162136964570      0.22240651447866     -0.70328111897100
  C   2.79636195297414      0.08326029041711     -0.30534438936083
  C   3.46075562378581     -1.08408227800473     -0.41037752233999
  N   2.79047491000602     -2.30000054915408     -0.71591342774724
  C   2.40651104948159     -3.12288024145078      0.40247311786710
  N   1.36316354703427     -2.95671862445983      1.07712115817867
  C   3.40476805169310     -4.19764004848218      0.79695590713044
  N   4.72063319938009     -3.57719454661191      0.94499603941614
  C   5.01030968698633     -2.87661348402258      2.10507054910822
  O   4.30208525328322     -2.88181376083092      3.07146239137331
  C   5.43376701636649     -3.32108153850228     -0.24314224145508
  N   5.60581820373784     -2.18308483806602     -0.75356072255467
  C   4.93275689994142     -1.05914632037462     -0.24987733244255
  N   5.65140361923247     -0.10256127885052      0.19941898942941
  C   5.12288625954942      1.09080085056161      0.65901463952192
  N   5.73751963004443      1.94055987192182      1.35765010998838
  S   3.47539457750666      1.59021250330554      0.17558472529166
  H   3.28754169437186     -2.82689375207172     -1.42335714399262
  H   0.79867794045376     -2.19747494193578      0.69497417829843
  H   3.47401506503726     -4.97040353628366      0.02642340095887
  H   3.10010534008070     -4.64122384190479      1.74044326984792
  H   5.97470450621265     -2.34984536568114      2.04865854685638
  H   5.83040970171722     -4.19787769628693     -0.75296689937677
  H   6.69431490147747      1.62629661228976      1.51957377497387
