25
Coordinates from ORCA-job 14475optt
  Br  6.84736096570214     -1.35788170483120      1.45009640646782
  C   5.48445961663354     -2.57463133902897      0.99454193443249
  C   4.71062122444454     -2.46463884309157     -0.09677339198359
  N   4.82912944322746     -1.59002074701121     -1.15234594159574
  C   5.84252087023411     -1.39377499499637     -1.89717807950628
  N   7.11357539688246     -1.93737194305573     -1.95591393399138
  C   7.68589699837370     -2.89568447830481     -1.12636173102779
  N   6.99910422169215     -3.85373792882961     -0.68186726040863
  C   7.50772445876772     -4.46150741292221      0.51533106644651
  O   8.65208764766256     -4.74284132031659      0.71398311514701
  N   6.44314342070844     -4.76341631861675      1.38311969576703
  C   5.48222657911280     -3.94618590090345      1.55099374683321
  C   4.13557241061677     -4.44222767443959      2.01373453377825
  N   3.09665575552754     -3.92036318239944      1.13154523230468
  C   3.53398907092728     -3.44937162454659     -0.16180790550853
  C   2.36859190569314     -2.76137411092379     -0.86580556040100
  O   1.37296539533494     -2.43790252710411     -0.28726682214951
  H   5.72614908474936     -0.62883537574395     -2.66237900081500
  H   7.75631933148670     -1.39425133575758     -2.51298727715507
  H   8.72599258867540     -2.70549989918006     -0.85313392418191
  H   4.16088531123593     -5.53272050463451      1.99765628771318
  H   3.93839630233466     -4.11573041958784      3.03604805422884
  H   2.52797990481448     -3.20585313375246      1.56689731723060
  H   3.84384515880140     -4.29328380380163     -0.79490667257971
  H   2.50180693636069     -2.57489347621996     -1.94221988904547
