22
Coordinates from ORCA-job 14473optt
  Br  1.59143454205265     -0.21295478989985     -0.84062503748934
  C   3.36977942683525     -0.02537408213018     -0.31811845288015
  C   3.96066615979578      1.17994288593407     -0.04400770762925
  N   3.47440185474260      2.43829602395613     -0.07128451564484
  C   4.53476759123309      3.16134358386975      0.27427989460765
  N   4.41757513451128      4.53671978381017      0.35293388506990
  C   5.41799301928613      5.28974041451823      0.59704932106244
  N   6.72276217018984      4.93154601359985      0.81687436107758
  C   7.78854680674865      5.79060391270242      1.01804952813436
  O   8.90866306100544      5.39462965219399      1.17744576042238
  C   5.13719747345359      6.72000341541825      0.64312963000819
  N   4.93249808634823      7.84594855876590      0.68272619275371
  N   5.69627434263402      2.47199069668708      0.53608585790567
  C   5.35133392454402      1.20605589452445      0.34070018380993
  C   6.08225495441955      0.00862656195668      0.44451079628411
  C   5.42568882218563     -1.15116695507897      0.16353547845368
  N   4.11242597980907     -1.14745659405961     -0.20708076716622
  H   6.89432366734903      3.92127140412255      0.80913454824634
  H   7.51396827813959      6.85445238138519      1.01662131126266
  H   7.12263144347615     -0.00551966904424      0.73388227866346
  H   5.88623023588323     -2.12574087166974      0.21355095405621
  H   3.66158302535712     -2.02795822156214     -0.41039350100846
