22
Coordinates from ORCA-job 14471optt
  Br  5.53892122586409     -1.94357671263356     -1.65875287184928
  C   5.11368942452747     -1.44685605035678      0.09331639031211
  C   4.85156524970546     -2.30703073779390      1.08331327434493
  N   5.14432398581735     -3.65514652948386      1.09676956542552
  C   6.37732173460838     -4.18095680496495      0.71744661368900
  N   6.64061742985417     -5.40920179007175      0.56530260197844
  C   7.53298701500465     -3.24981426795875      0.48765201648004
  N   7.63292892664635     -2.12531773452513      1.04517536042771
  C   8.65437997219814     -1.23105612266277      0.74710596391617
  O   9.73428454071026     -1.21948157064372      1.26655587056116
  C   8.33281133973296     -0.19217399567859     -0.32842113411532
  N   7.37418910287883      0.61658741141572     -0.43921154227097
  C   6.29802803881146      0.74226402085317      0.44377425317484
  C   5.26707150874792     -0.08707449469959      0.58736404833974
  O   4.24758585804860      0.26815442809841      1.45396895604985
  N   3.92441734111823     -0.67378267381418      2.44072540655014
  N   4.28801484664500     -1.82991910000488      2.28781111870314
  H   4.55112832194596     -4.24673834247071      1.66124350122552
  H   5.83473768008147     -6.01094591725155      0.73291638142399
  H   8.27616295375928     -3.65780979661571     -0.20019512577439
  H   9.13367260233335     -0.12752399791960     -1.06558521942237
  H   6.24416090096054      1.70140077918268      0.94772457083002
