22
Coordinates from ORCA-job 14481optt
  Br  2.93380832543157     -1.24750063313453      2.21526050441058
  C   3.53227055760245      0.09083504536037      1.07154905681984
  C   2.81517457893065      1.14364558551621      0.69241043474935
  N   1.55891391085495      1.52776990187524      1.15169884702414
  C   0.71803013702485      1.81451224243775      0.24565390491367
  N   -0.35019161350943      2.68268221935939      0.44918551650526
  C   -0.06593590679649      3.90321631604102     -0.32128874098184
  N   -0.74355533146601      4.33916016486540     -1.26934272565301
  C   1.14692250677379      4.65225102926835      0.24232552063539
  O   0.98780077128270      5.61981700861156      0.93217726776544
  N   2.38823609853944      4.03154328543822      0.13147022305851
  C   2.75245861304464      3.09292677911538     -0.84213466036879
  O   2.48433824341901      3.22430604067716     -1.99815071878572
  N   3.44394347711429      1.98241823103544     -0.30515624310548
  N   4.20938500298864      1.29359588721914     -1.24847475585634
  C   4.83314481675868      0.30538044690770     -0.78669762936201
  O   4.77124617821848     -0.12494741857611      0.51286491752998
  H   0.85256329415353      1.54990991216590     -0.80666073284036
  H   -0.41275148261238      2.91422955947785      1.44088719866179
  H   -1.54577863684760      3.73302132181756     -1.45035292571137
  H   3.02593553306378      4.20994077815986      0.89638786546146
  H   5.49104092603046     -0.28171370363888     -1.41061212487051
