27
Coordinates from ORCA-job 14484optt
  Br  1.58830227382033     -1.88076402034315     -0.05448693633394
  C   3.43803442065040     -1.53685581806631     -0.13047016493676
  C   4.12931461151928     -1.60867726019368     -1.30202657952557
  N   5.44430540890752     -1.21922621601450     -1.30419282718037
  C   6.23736225496297     -1.05071128328397     -0.14900750107426
  N   7.44105823366990     -0.65151105024836     -0.14210738818813
  C   5.54885589581921     -1.54752810515712      1.04278983728954
  N   6.29770468074639     -2.36352922940468      1.92681929210421
  C   6.59647020692406     -3.63099346145446      1.51355601995225
  O   7.22165134576529     -4.44651638534960      2.10815417786220
  O   6.19005244663918     -3.85370593734644      0.17660302551225
  C   4.95357460676891     -4.32456928318425     -0.13126845997687
  N   4.13559722784321     -4.61695495984984      0.77608947731393
  C   4.77399166709473     -4.43236001836696     -1.63992744804742
  C   3.53965460738060     -3.72315603336013     -2.23821611482152
  N   3.64755385608655     -2.26225775889165     -2.43197168970823
  C   4.20428204235570     -1.63654387568835      1.06800157363787
  H   5.96085454629478     -1.35150286938911     -2.16178555178729
  H   7.78415730390920     -0.41014228476912     -1.06906824357477
  H   6.87343633063293     -1.99825060897845      2.66986968439181
  H   3.25167400079753     -4.94675400291950      0.39755820157059
  H   5.68685789186277     -4.09089731880446     -2.12957993194079
  H   4.67401383583586     -5.49739799616250     -1.86315171128407
  H   3.33710893862347     -4.14788374370792     -3.22043818563670
  H   2.66365561315337     -3.92086928752121     -1.61940471050485
  H   4.15133512150163     -2.02710180537497     -3.27659188216263
  H   3.72214063043414     -2.03733938616925      1.95025403704954
