23
Coordinates from ORCA-job 14483optt
  Br  2.88572436633559     -1.69447574690714     -1.05584669743861
  C   3.06326313283419     -0.07282205983334     -0.11522129735796
  C   2.28493159785425      1.05276555785812     -0.42539296497743
  N   1.35875510140686      1.04650722027701     -1.44584429902712
  C   0.39552021655481      2.03206522545032     -1.73652851411250
  N   -0.57023376606017      1.89226998525714     -2.53195840631099
  C   0.64588011967825      3.32765992610823     -1.03141382211649
  N   -0.05201536887002      3.67979818750867     -0.04118516911169
  C   0.61776711477860      4.63769219099314      0.73849216752733
  O   0.79991009211706      5.79321931055580      0.53203700870283
  O   1.09287806037342      3.95060118432476      1.81958805829661
  C   2.34928666071299      4.25292608270674      2.28871105379975
  C   3.36502624045683      3.41440951595533      2.10319055943165
  C   3.29786980629900      2.17988608823845      1.29873567730277
  N   4.10039092967101      1.17213967644235      1.63604215130724
  C   3.97224793173849      0.05981625401178      0.91637299664052
  N   2.44658142004226      2.15814670144231      0.27826907568401
  H   1.26208888459037      0.17603687224405     -1.94996062615580
  H   -0.61959157412132      0.95802731214015     -2.93858710332828
  H   1.53487615891844      3.87300292937299     -1.35425403722801
  H   2.42781873373728      5.16390479354296      2.86828727898925
  H   4.30182173872208      3.61529712898252      2.60390388974931
  H   4.61520240222970     -0.77387433667237      1.17656301973360
