24
Coordinates from ORCA-job 14498optt
  Br  1.06151071793846     -0.01405167566822     -0.15163386799979
  C   2.91096296344466     -0.06136691453938     -0.15808347826930
  C   3.64968005774630     -1.16374739746871     -0.13567407682820
  N   5.06743715825494     -1.06098349233002     -0.14104450813465
  C   5.53597818677945     -2.36118840044750     -0.06395762604102
  N   6.87201508635201     -2.60350253963583     -0.03425711483203
  C   7.48646849481403     -3.87075973060146      0.03064006427270
  N   6.95474377625921     -5.00367050324884      0.09656222263130
  N   4.61087391398757     -3.26892721548721     -0.06180106756666
  C   3.36558965848558     -2.61582012240002     -0.09667846251364
  N   2.21070868298472     -3.12878272498398     -0.11375263356575
  C   5.59525776491741      0.18435260947970      0.25362026470002
  N   6.94275151732387      0.27225947080720      0.62455100886199
  C   7.85910319185384      1.06950152901764     -0.02822229774189
  O   8.98094725334717      1.23471893788421      0.35986858786075
  C   4.78698785526486      1.24107248084600      0.23635364006039
  O   3.48119742872876      1.18787829780850     -0.18999713574459
  H   7.48121595647000     -1.80861076565700     -0.13622745713156
  H   8.57031647703062     -3.76719702247395      0.02282066643493
  H   5.93651658499529     -4.94839859758418      0.08858816335488
  H   2.28503753098621     -4.14501885998665     -0.09391455630897
  H   7.24027655944854     -0.11001950963316      1.51451146371428
  H   7.44549259083139      1.51354524632873     -0.94719805399338
  H   5.09793059175493      2.22371689997417      0.55292625478018
