24
Coordinates from ORCA-job 14495optt
  Br  9.39086345201067      5.15040732993915     -0.71014659063721
  C   8.82893361437496      3.41965044566329     -0.22492990950353
  C   9.65836631370218      2.33513915975636     -0.25712871312155
  N   11.00764044534971      2.16778470238253     -0.54419264780943
  C   12.10781663637383      3.02949300812481     -0.28547531809163
  N   12.15862601796056      4.00258150583354      0.49766702623091
  C   11.20810228874921      0.79556736546914     -0.64771147584833
  N   10.16049085625913      0.10921759295027     -0.40682230558559
  N   9.18066058048295      1.04009811527745     -0.16398421804674
  S   7.75368452833399      0.56088042124981      0.63397329906092
  O   8.03441971324598      0.50475717070045      2.03144133139510
  O   7.27883783849141     -0.60641444646694     -0.02714895773575
  C   6.86180300466725      1.97226584673474      0.22801696714491
  C   7.44064738752331      3.17802443170765     -0.04555682712686
  C   6.33069838047023      4.17849139913057     -0.21113608673373
  C   5.08793655123062      3.36715604276162     -0.00006429210721
  C   5.40739698703066      2.09222455840829      0.25468516104969
  H   12.98706376949731      2.71954225076658     -0.84627919441821
  H   11.28097248775014      4.18142449921881      0.98393685429394
  H   12.17259957550059      0.37495914631156     -0.88125599028118
  H   6.37005012729057      4.64647273127951     -1.19980333551543
  H   6.43254382682009      4.99026839584437      0.51708097956887
  H   4.09131669367012      3.77722775735806     -0.05394343087029
  H   4.73252892321439      1.27078056959834      0.44277767468833
