22
Coordinates from ORCA-job 14503optt
  Br  1.29953970078873     -1.70304397020431      0.32774554998240
  C   2.54563182172323     -0.32934514151854      0.06109970920760
  C   2.35220635453787      0.90329417652644      0.58090189873405
  N   1.29691805168873      1.21569913528755      1.43818364306390
  C   -0.05659656767448      1.19179620073066      0.94996931334456
  N   -0.46457293399331      1.85471740617017     -0.03507374223539
  C   0.47515153567958      2.70602249818068     -0.68248722205967
  N   0.85138354626516      2.57121836965493     -1.87675826181591
  N   0.82985886497693      3.81095373451066      0.10145050409940
  C   2.01828640460318      4.04694556179660      0.47923474360704
  C   3.23165495308045      3.25282786684483      0.27574012059101
  C   3.34242481908369      1.91830711345771      0.23617130181108
  O   4.56768873731318      1.41652914317636     -0.16699341725588
  C   4.60343313625328      0.17801030194388     -0.68210342025214
  N   3.66851401000508     -0.67557300181006     -0.65990940331737
  C   5.88263206677537     -0.13270505167973     -1.27375860185237
  N   6.90083398507196     -0.37537509885580     -1.73691498385750
  H   1.47811945634823      2.03370479924928      2.00793122257046
  H   -0.74067572777974      0.55891512832638      1.50564262968127
  H   0.37658409629833      1.77816737437988     -2.30585411367688
  H   2.17205489917458      5.00110072916932      0.98358069297183
  H   4.13692878977992      3.81683272466309      0.08520183665853
