23
Coordinates from ORCA-job 14509optt
  Br  3.21220710427502     -0.39559688749998      2.35914878167918
  C   3.36479130754265      0.55261529767365      0.74622479182291
  C   2.34284547898472      1.32503882648956      0.29919603356391
  N   1.14420986047111      1.42106722666329      1.03414102990033
  C   0.00072916912738      1.61176139764247      0.30861331122401
  N   -0.94138446540351      2.40563136080554      0.62962678462709
  C   -1.44103305188780      3.11757583698477     -0.50438723696938
  N   -2.58247302104897      3.61857983261022     -0.67325300919072
  N   -0.37857796803416      3.19323117888281     -1.44741660200660
  C   0.75934068185837      3.60102228250498     -1.04943633571090
  N   1.93832571327540      3.05627856290996     -1.53455355197346
  C   2.58120935216355      2.11302118379602     -0.95218822974890
  N   3.75545812837900      1.72990259209418     -1.58749107338126
  N   4.73957609942035      0.97367360154834     -1.13618879252902
  C   4.58226482438937      0.41223892743981      0.01253148107558
  C   0.94518017124671      4.59484312012825     -0.01169096096557
  C   1.10866323678483      5.43199969398097      0.83018467718788
  H   1.19193117338819      1.89395880308894      1.93048057523299
  H   0.07346766530328      1.13158472699585     -0.66765859882736
  H   -3.19203747077677      3.34664000952540      0.09419543439099
  H   3.94336628022687      2.20677381146527     -2.45913598549491
  H   5.39166752056993     -0.20016069051316      0.38151798328358
  H   1.23627220974447      6.17931930478283      1.57753949280962
