23
Coordinates from ORCA-job 14514optt
  Br  1.36081356283407     -0.75943447472440     -1.47122246051769
  C   2.88850335216885      0.01557773105189     -0.71072147046878
  C   3.34423050296608      1.22492270810297     -1.02081075139423
  N   2.74302213493344      2.11619039674545     -1.89429282557368
  C   1.82903150259249      3.11551347179654     -1.56195922835913
  N   1.31471973422789      3.90703295017562     -2.40463340772613
  C   1.44788294179263      3.37940004643506     -0.09993709262523
  N   1.24774208366313      4.54935228617335      0.30666032960212
  N   1.32998115423485      2.28536422860620      0.78162326746233
  C   1.81715954396721      2.28657150445788      2.07879880937838
  O   2.29617977373490      3.22547289418039      2.64286630852783
  N   1.72546155592418      1.01423336926911      2.71966916497672
  C   2.60878400694317      0.13749880702037      2.47848761474891
  C   3.60366816727994      0.30591247258713      1.39218176250011
  O   3.42840792153001     -0.63629856927636      0.35035107061493
  C   4.22846566791555      1.43159652476170      1.06608912791496
  O   4.41119066358203      1.70430634407655     -0.26549260943865
  H   2.97405522457578      2.04912357925455     -2.87438072753603
  H   1.64003362590150      3.74359804427181     -3.35584834200212
  H   1.39552543311120      5.20373136745492     -0.46120235948016
  H   1.00315371606778      1.40621073793359      0.41024710080327
  H   2.54142920360110     -0.82182816204216      2.98602786090228
  H   4.47455852645219      2.23695174168783      1.74249885768995
