23
Coordinates from ORCA-job 14511optt
  Br  3.44676549007478      0.81199936161927      1.23962587204902
  C   5.18298125235555      0.26009371385499      1.66079700353398
  C   6.30762666522277      0.90391249769640      1.25863453661608
  N   6.35719701009292      0.94925578291461     -0.12169882995587
  C   6.35516951711925     -0.40967625416207     -0.55305052939006
  N   6.91934435153815     -0.69948709279738     -1.63232481460182
  C   7.65421485637256     -1.85890852508486     -1.94670615663004
  N   7.32387082899186     -2.88514327925715     -2.57743581660401
  N   9.04018138674459     -1.64764617322197     -1.56125666441165
  C   9.27302650213445     -1.61719501438129     -0.14455524166136
  N   9.75175205387413     -2.56131550793703      0.52698901312827
  N   8.85925023702710     -0.37579612818500      0.43241290216577
  C   8.23331176423915     -0.44815125589900      1.51700700180069
  O   7.47482529551561      0.59950135816944      1.98005839352024
  C   5.81558113751617     -1.48279505895475      0.45199235534267
  N   5.79468367288480     -2.67539843330470      0.09676271493595
  O   5.36172374198590     -1.10032173493751      1.73574707319705
  H   7.05512653376821      1.50509205025930     -0.60564886549564
  H   6.31982185407982     -2.88397004875391     -2.75094083773859
  H   9.29795161021703     -0.73169535726919     -1.92403265328471
  H   9.96826288950479     -3.34269969919376     -0.09033245949083
  H   8.16593172346848     -1.34013880123484      2.14257755568119
  H   5.43339962527182     -3.28551639993961      0.83037844729367
