25
Coordinates from ORCA-job 14524optt
  Br  0.73055146620457     -0.59062530835253      1.19998361333967
  C   2.24067659550594     -0.88979227201487      0.10588514285746
  C   3.23849737080957     -1.78586270950501      0.51514421471742
  N   2.85699304699888     -2.81796082424962      1.39798332331342
  C   2.04652948065167     -3.63912941652755      0.86656031025634
  N   1.71717797152069     -3.62874320979760     -0.52015859138658
  C   0.47996389839932     -3.11540600522373     -0.91808730870166
  N   -0.59381665025264     -3.40573650908206     -0.34268304375165
  O   0.64717573926154     -2.28560320603415     -2.01501851068692
  C   0.13918647697938     -0.97329759332810     -1.97911069459091
  O   1.16730144258561      0.01495972551878     -1.84186225086472
  C   2.29414567496994     -0.36518680859606     -1.17548968435342
  C   3.51496182250686     -0.35322767151406     -1.85078682668234
  C   4.60603960156491     -0.99463480157194     -1.30276724218163
  C   4.46325419101225     -1.78891864291397     -0.15392367575974
  C   5.49952064295496     -2.68503309288249      0.25020524620591
  C   6.37325195383182     -3.43551375674823      0.58215323416081
  H   1.56403163537199     -4.40490414026632      1.46233939455740
  H   2.45518901039717     -3.22466143209715     -1.08242345120787
  H   -1.39577828204336     -2.93508310593503     -0.74919669880004
  H   -0.58703426679635     -0.87011275869690     -1.17316209100087
  H   -0.30879284764213     -0.76303553470974     -2.94606458850016
  H   3.56361475344013      0.11678334943146     -2.82338754900082
  H   5.55600356970560     -0.99467457664024     -1.81939349519043
  H   7.14435570206167     -4.10159969826287      0.88726122325135
