24
Coordinates from ORCA-job 14520optt
  Br  1.40979467976737      1.80222789444105     -1.03251781996888
  C   2.97762133018850      0.95737934705497     -0.46248889051075
  C   3.13763563509059     -0.36808677804132     -0.51221661969185
  N   2.15860688898351     -1.28949064858087     -0.93046741141081
  C   1.97431835835300     -2.30561354425282      0.06264031828567
  N   1.23253965895916     -2.19796062224132      1.06585975900884
  C   2.83137950818368     -3.52116723419021     -0.12249249614565
  N   2.38679500245322     -4.68405320645371     -0.04886918914039
  O   4.14152103968248     -3.27409266416350     -0.50164924342815
  C   4.86576939188694     -2.17921881413937     -0.16366290078828
  C   6.20897465576391     -2.20276688216197      0.02223417464344
  C   6.66480143354643     -0.84531386529188      0.28489072543262
  N   7.80969045904644     -0.33812529009788      0.54001812899675
  C   5.43434117585284     -0.03646574539252      0.21092856500265
  C   5.24093636968405      1.27757099391688      0.21611132720070
  N   3.96833519857972      1.80952693185286      0.03958417477871
  N   4.33031229602848     -0.92390009594793      0.00176684991680
  H   2.37963991572312     -1.68267602470510     -1.84079319911662
  H   0.72698052880098     -1.30936688052808      1.03365902466745
  H   3.11852711962778     -5.37317140964103     -0.22495343757197
  H   6.81166344693840     -3.09484543912897      0.01575281722525
  H   8.53207603655964     -1.05422821106610      0.54169296594291
  H   6.06452318638000      1.96184097635259      0.35644155543464
  H   3.89221668391967      2.78099721240626     -0.21346917876307
