26
Coordinates from ORCA-job 14525optt
  Br  2.29450303358342     -1.78876325007694     -2.44989317356437
  C   2.87908481476824     -0.61771768611682     -1.11259054848535
  C   2.32416632584363      0.61272642235517     -0.96763987480716
  N   1.27566523378738      1.16109732554010     -1.65809212428819
  C   0.78842630510437      2.42233242183969     -1.24581377200548
  N   -0.42392887707875      2.72579138145602     -1.09069275339483
  C   1.84197859942899      3.50569239981771     -1.09605098632086
  N   2.51155684807198      3.79917482930526     -2.11372181486073
  O   1.89078637724399      4.24204665543320      0.05424114074942
  C   2.13568744193822      3.70314693089096      1.32814788845306
  O   3.51528749419768      3.43168377831692      1.50788731644239
  C   3.92924619506605      2.15463587138846      1.90716723261923
  C   3.64236392272611      1.12417503026114      0.83587161713127
  N   4.22436544977925     -0.09287459647573      0.80036604074310
  C   3.89894978083080     -1.07201719004628     -0.17955618722886
  N   4.43231734157778     -2.22342663104282     -0.23045629943566
  N   2.74962886747045      1.47124188197154      0.00037766911081
  H   0.69681046192814      0.56681622049079     -2.23215345382305
  H   -1.04174076628197      1.92946324857774     -1.24715827771909
  H   3.14135518667392      4.57501435646468     -1.91060242991793
  H   1.87688681984889      4.51676914864052      2.00333026699973
  H   1.52401493837447      2.82455380734748      1.52811320611020
  H   3.43404685930509      1.83350179873083      2.83316709088226
  H   4.99915075111467      2.22375276998614      2.10986219967538
  H   4.93391392106844     -0.33729252152404      1.47574122274236
  H   5.11747667362869     -2.37552440353175      0.50514880419238
