23
Coordinates from ORCA-job 14521optt
  Br  1.03680233404605     -0.06395359916767      0.31010385565653
  C   2.89274875413675      0.05252405874887      0.13132190825386
  C   3.50073179478658      1.21994070171768     -0.21546655337162
  N   2.79753177504454      2.37023035270746     -0.56077480738701
  C   3.17010658423881      3.47322994627898     -0.06058703151916
  N   4.06862212651936      3.60081770143437      1.00737874063262
  C   5.34519608658730      4.14647386694621      0.64829237022696
  N   5.63111601397526      5.35849759086456      0.53756774953698
  O   6.26839198415883      3.18138284167193      0.42850692125371
  C   5.98335226170756      2.24835216290374     -0.63949000597783
  O   7.15301709119949      1.52552388284397     -0.83936434500601
  C   7.05691077056043      0.21186629022837     -0.30459947129423
  C   5.58847115307896      0.05306654188244     -0.09875781372508
  O   5.02682010162946     -1.09669196469121      0.23703451849974
  C   3.63383773997070     -1.18228017399736      0.39495720254313
  O   3.18757108669193     -2.23606976750662      0.71574610429754
  C   4.94206955475429      1.20252302787696     -0.31009664155489
  H   2.78328076737126      4.40615759188953     -0.46064997595900
  H   4.19993824684015      2.71507253440257      1.48485660288200
  H   4.85551899402194      5.93733366018189      0.85183193008493
  H   5.76502107413354      2.84426154976025     -1.52966123625294
  H   7.61421840567610      0.12483294804374      0.63232995178187
  H   7.45772529887068     -0.49809174502067     -1.02847997360209
