23
Coordinates from ORCA-job 14522optt
  Br  1.33413568110340     -0.48126776703105     -0.83924589842826
  C   3.06763600914051      0.03138891532252     -0.39415765359288
  C   3.46032152515044      1.27582905830010     -0.00909374293735
  N   2.84242653955842      2.45233314578854      0.17698374860246
  C   3.86678435995786      3.23542420016620      0.54613458724489
  N   3.73745043464636      4.55232615919374      0.84194370483252
  C   2.56933799867838      5.30964563975432      0.80119065447400
  N   1.39824915849587      4.96666029627625      0.50552212470488
  O   2.90086066341989      6.56809091443753      1.15095948438895
  C   1.81713490381179      7.49346738093209      1.13741103270396
  C   2.32889092926728      8.80768868864500      1.50618511429753
  C   2.71819423907509      9.89815973764618      1.80509454875128
  N   5.10767550756857      2.67514079233107      0.62337948083193
  C   4.86983532800101      1.42710772252252      0.27245158464086
  N   5.76346499758447      0.41675786558730      0.17169641513866
  N   5.34145366147232     -0.72996637689476     -0.19072561944476
  N   4.04754933158450     -0.90057834141358     -0.45830129608848
  H   4.58541837212621      5.03325963237094      1.10289489667542
  H   1.34896486737139      3.97989598068872      0.27061776144287
  H   1.04747152112579      7.16304212224158      1.83660091595317
  H   1.36849859147030      7.51510434461166      0.14304520993343
  H   3.06975305169203     10.86604802227556      2.07216795767099
  H   3.82649232769810     -1.84655813375246     -0.73775501179607
