19
Coordinates from ORCA-job 14529optt
  Br  1.53551355779071     -0.30828241785297      0.98739635836519
  C   3.30450128570123      0.04943577733377      0.56812030145937
  C   3.79017136781329      1.12211507158789     -0.06801609656739
  N   5.21077859406317      1.17213202883671     -0.24798002326890
  C   5.96377678831368      2.27365717416500      0.17707134390454
  N   7.15194905949903      2.26068222935658      0.59269687247041
  C   5.28707775845559      3.62167105147783      0.05096251909140
  N   5.81005658874317      4.68121949902425      0.47187337951574
  S   3.76352481781916      3.79271152427524     -0.84101572581757
  C   2.96383677070649      2.22150125322377     -0.62311693845441
  O   1.80765867684838      2.11056351679079     -0.91242309747614
  C   5.80738244260398     -0.07721374457076     -0.42469292800685
  Br  7.24153579419768     -0.24781588123379     -1.62021121389590
  C   5.24513735449096     -1.13124012566050      0.16866974639381
  O   4.14002949256533     -0.94629627247165      0.97854368990272
  C   5.64871985813793     -2.48936827864764      0.01228730330107
  N   5.98069202922842     -3.58182227306083     -0.09137472231228
  H   7.56019060861749      1.33365799722401      0.68030064868810
  H   6.72046715440422      4.46669187020229      0.89090858270708
