23
Coordinates from ORCA-job 14536optt
  Br  2.10126271565709     -2.07709444380494      0.83008566949770
  C   3.88702662616825     -2.83863671195546      0.61261981249151
  C   4.86905559036669     -2.29884270276378      1.57019162947132
  N   5.44622658804063     -1.08355528409445      1.35950414401657
  C   5.57186171775568     -0.70821268387895      0.00303344993714
  N   5.94807056623873      0.40285338544998     -0.43894415323025
  C   5.31941355383621     -1.85434461346048     -0.96868162289829
  O   4.26333853248266     -2.70126104990374     -0.71684155269827
  N   6.08654630828749     -2.06510174896363     -1.93243541231502
  C   6.01003902089661     -3.30955742784282     -2.62197905350890
  O   5.84997913648352     -3.42002538496373     -3.79483782602917
  N   6.26676341697662     -4.34131643864694     -1.68942448967405
  C   5.25515268571777     -4.99224796718111     -1.30198594356395
  C   5.31101342252196     -5.80578396253490     -0.06705804045984
  C   4.80615855453898     -5.39353366072445      1.09031042772630
  C   4.09700492930891     -4.13226997109239      1.49539137350912
  N   5.00471170940754     -3.28482484783266      2.36874884576781
  H   6.04830468281628     -0.65189324330388      2.04678724786336
  H   6.12824045070779      1.07743547703404      0.30412179172379
  H   4.28372301612312     -4.89191786687261     -1.79310716931647
  H   5.83429350557223     -6.75465006353984     -0.10494500268074
  H   4.94658315800038     -6.03842408511867      1.95280606699408
  H   3.17323011209479     -4.39279470400456      2.01363980737623
