23
Coordinates from ORCA-job 14535optt
  Br  2.23536291141829     -1.12928128046018      2.34938536792283
  C   3.68201597266977     -0.45090411421067      1.39067220092206
  C   3.61380510893483      0.39266932141032      0.35786117533999
  N   4.83666979934301      0.84919315399916     -0.19032654549929
  C   6.03997642456050      0.19156762338071      0.03693266384880
  N   7.22045372176223      0.55781908794002     -0.20480871882629
  C   5.67119873793288     -1.15947874916983      0.57600175274281
  O   4.87563213404703     -1.03975739160105      1.71578000101138
  N   5.82229660307255     -2.20611887603150     -0.07692687308863
  C   4.97734860299790     -3.33640918490996      0.03373199995896
  N   3.80421415931772     -3.33812175174632     -0.47089090957941
  C   3.34495539847579     -2.13623449372464     -1.00957594135741
  C   2.10484413282332     -1.68914832354791     -0.80038865222164
  N   1.73073932017725     -0.35209363308588     -1.02448755216481
  C   2.38972258116661      0.59064593658549     -0.48286697794303
  C   5.54151100891012     -4.50040176061679      0.64672416111016
  C   6.04239558720985     -5.44477232613398      1.18505193982740
  H   4.85699888278821      1.75037174321998     -0.64366369987224
  H   7.26464305145744      1.49809624411899     -0.59529397189969
  H   4.05868178123844     -1.48243396314984     -1.50588198053584
  H   1.33807428207904     -2.31850340607856     -0.36496753172323
  H   2.08175277339304      1.61117215839433     -0.70673788158310
  H   6.47770702422408     -6.29187601458187      1.65967597361020
