23
Coordinates from ORCA-job 14531optt
  Br  3.28784890098477     -1.07735060621975      2.65265482683367
  C   3.74858884664337     -0.22580340157147      1.02462238302064
  C   2.98702154601453      0.78910521035673      0.54237006438049
  N   1.84930219366381      1.21729781674575      1.23814213461477
  C   0.79715643543544      1.79616016242575      0.60903531122946
  N   0.03627141481394      2.63891339374065      1.18981757343375
  C   -0.78549879595053      3.42318488244054      0.41052447669340
  N   -2.00937586197353      3.35477367556284      0.14138863656036
  S   0.01210717010038      5.00040485586611     -0.07473329455969
  C   1.65283782136845      4.52761751100567     -0.43251152321770
  N   1.95247828988024      3.38050734350971     -0.84252576775292
  C   2.98265070978915      2.63235272416847     -1.23067024380232
  C   3.42495645950155      1.45137197969705     -0.68089668788671
  C   4.58027009519880      0.86588880328373     -1.40361625202079
  O   4.97898323923959      1.25457790897729     -2.48549342765859
  C   5.27055472818265     -0.22815833908543     -0.69012846892151
  N   4.88260954407208     -0.70279094340566      0.43323322257894
  H   1.92611146847526      1.34779599589310      2.23896683952501
  H   0.67471477187486      1.48489046234025     -0.42566184232470
  H   -2.42035637909850      2.52308488823757      0.56764326843706
  H   2.39599524832494      5.30446261079723     -0.23451188353695
  H   3.47450057472775      2.91564849814454     -2.16154301200686
  H   6.15827157873096     -0.63993543291071     -1.16010633361881
