21
Coordinates from ORCA-job 14545optt
  Br  1.12564002335175      0.10824857091112      0.06051503564949
  C   3.00686258420767      0.06619838623338      0.05933680533435
  C   3.68105276005045     -1.13060037351490      0.06021021590739
  N   3.18964964019961     -2.42318196596242      0.06182650068175
  C   4.21357421967692     -3.36580490422567      0.06197102375652
  N   4.17434231185882     -4.62206870465257      0.06269552932554
  C   5.52743967869945     -2.55641571652375      0.06090626766635
  O   6.62732159865207     -3.01323564223569      0.06117506849390
  C   5.09103202628860     -1.13104626513403      0.05958256288112
  N   5.85017448025770     -0.05809092183125      0.05811036729842
  C   5.18850886648002      1.08906703091682      0.05709440031680
  C   3.77666808128380      1.23454074901158      0.05756560754215
  C   3.38070149541751      2.59852388620198      0.05609088999417
  C   4.44856485461899      3.44556084896862      0.05464289685552
  S   5.98148423750593      2.63215545364237      0.05499187292844
  C   4.40422662415660      4.86125960240796      0.05282712388450
  C   4.38058724092733      6.05991377456716      0.05181567042720
  H   2.20581221032666     -2.63909182710292      0.06162338963820
  H   3.22296216498706     -4.98933838536690      0.06327237101195
  H   2.35595709600917      2.93759357802896      0.05601059381743
  H   4.35243780504387      7.12381282566013      0.05073580658882
