21
Coordinates from ORCA-job 14542optt
  Br  1.00977045619651     -0.05926937435891     -0.05672331506110
  C   2.89198580893789     -0.02130015338319     -0.05217713435293
  C   3.60802727443456      1.16562602485766     -0.05094070914960
  N   2.97242506433489      2.38881937995765     -0.05186180861000
  C   3.68079941560823      3.54792026965093     -0.05025416518313
  N   4.95382182880126      3.65561812716672     -0.04856399489581
  C   5.73695587323413      2.49276606245675     -0.04830097345557
  O   6.93845078084824      2.54767222181218     -0.04778974744324
  C   5.02616254491151      1.17899304812046     -0.04869036528789
  C   5.72825255439948     -0.02147066488470     -0.04721048231855
  C   7.16071196660216     -0.12018031866380     -0.04507512469639
  N   8.27649347431983     -0.38628159133860     -0.04321390730262
  C   5.01597944364142     -1.22398803532679     -0.04765042636151
  C   3.60871057149493     -1.20972025761828     -0.05016429477232
  N   3.22093774922641     -2.50261981944469     -0.04993148925159
  N   4.27307061216090     -3.34917653795889     -0.04726251380738
  C   5.35112111605643     -2.61298689483417     -0.04597273846506
  H   1.96418237068672      2.41718466802732     -0.05304427527816
  H   3.06816951602405      4.44547788324871     -0.05046683623175
  H   2.28378057989883     -2.86809645479818     -0.05103490595247
  H   6.33119099818158     -3.06198758268820     -0.04367079212291
