21
Coordinates from ORCA-job 14547optt
  Br  1.21461862813565     -0.93414331754909     -0.35052228483019
  C   3.03712980434482     -0.49200140742685     -0.19560761809887
  C   3.43974322650223      0.81844210319121     -0.08230423542416
  N   2.58552092436821      1.88676514676610     -0.07640327945472
  C   2.86336673323135      3.23993567511096      0.03013053890396
  N   3.92087535052444      3.92428089310877      0.15147635773840
  C   5.27421919136318      3.52248396728588      0.23135369570384
  O   6.11716126834709      4.36995582349816      0.35384193893993
  C   5.66356568740170      2.10273967144383      0.17048257520003
  C   4.82407747214844      1.00641333697386      0.03249019683524
  N   5.60212058402829     -0.13224813881185      0.02177970429687
  N   5.14226046178350     -1.39527570616959     -0.09690255174372
  N   3.89183579744653     -1.53821203750203     -0.20163497600815
  C   6.92738870943248      0.22290927442781      0.15308283583766
  C   8.01344861814891     -0.76204583355035      0.18613265968264
  O   9.16559890923254     -0.43781818616100      0.31109297476244
  C   6.97136572562942      1.60092073851057      0.24517012375454
  H   1.60507190867603      1.65507365419623     -0.16444695924451
  H   1.92811937430568      3.79830271406573     -0.00334735472452
  H   7.71077300065330     -1.81624330514344      0.09149288952887
  H   7.86873862429616      2.18776493373507      0.35464276834443
