22
Coordinates from ORCA-job 14556optt
  Br  1.26202332307044     -1.35816336980296      1.25822425119423
  C   2.87356211624397     -0.68214280538151      0.57442649440700
  C   3.06390401424742      0.63999879311242      0.37102852892437
  N   2.08938120570457      1.55227872638031      0.74165755194192
  C   2.02036988417384      2.91206504544567      0.61051101855379
  N   2.63884791537402      3.70541972470472     -0.16282136823713
  C   3.58148218807246      3.29181855187835     -1.08960676031059
  O   3.64414896494172      3.75545359715184     -2.19583252089956
  C   4.60715012310640      2.27550912582466     -0.70602392271991
  C   4.36253233953661      1.08019603777219     -0.15150733591185
  C   5.43221488362270      0.05340906717152     -0.12942705719955
  C   6.87242528173331      0.46470738027405     -0.38366293025736
  C   7.34191594358954      1.48002926011289      0.55758561945340
  N   7.69456761425981      2.27699534816169      1.30044135799009
  N   5.23755468165419     -1.18567763452153      0.06324544847076
  C   3.92282906721159     -1.67631712705268      0.29322628227103
  O   3.71911331601376     -2.85760245617125      0.28740407285190
  H   1.33903565925164      1.13968165457447      1.28202149929283
  H   1.27276591004398      3.33797687108161      1.27580412542444
  H   5.59557872334952      2.51612413688888     -1.07617183573062
  H   6.99304966543599      0.84279700254669     -1.40143569450853
  H   7.48154717936244     -0.43155693015207     -0.28508682500068
