23
Coordinates from ORCA-job 14550optt
  Br  0.92032282698033      0.08106988240079     -0.14322013597242
  C   2.77577519153012     -0.03631724002375      0.03265055863201
  C   3.49455858394659     -1.16239300825515      0.01326416064424
  N   3.20182001051037     -2.48207571021611     -0.11512209230708
  C   4.37847250009368     -3.26173144948158     -0.06254594006371
  N   4.50627026294816     -4.51820429512327     -0.14157630523726
  C   5.46510494449045     -2.28329866082944      0.11407235979427
  O   6.72994091148923     -2.72271193248910      0.26326603222265
  C   7.72881365486016     -2.12435013007651     -0.44655244511643
  C   7.68025014189130     -1.18132473584695     -1.41713566787006
  O   8.94276368742089     -0.92851993617691     -1.85045128338022
  C   9.77975864453044     -1.71638453992713     -1.14705054509458
  C   9.09804377869001     -2.47954637688833     -0.26453315272305
  C   4.93420233544016     -1.03825146073374      0.17157689987692
  N   5.52405195153652      0.20463213213847      0.35753155110286
  N   4.80149430758549      1.23515102960329      0.36635220736622
  N   3.48152789390074      1.14371475664843      0.20221219075573
  H   2.27551016180984     -2.86009206015269     -0.22422780600869
  H   3.61605138010850     -4.99624407714776     -0.25869346814310
  H   6.88735286519344     -0.61124716063712     -1.86309213059706
  H   10.82572205608264     -1.62784423320089     -1.38225404412111
  H   9.49152553283682     -3.20297399664904      0.42780530423376
  H   3.00466637612398      2.02994320306453      0.23572375200610
