23
Coordinates from ORCA-job 14569optt
  Br  1.18349485009009     -0.10874958898680     -0.31880959478927
  C   3.05488397720712     -0.14519055599569     -0.07838831688881
  C   3.68581999600604     -1.33522061764220      0.08710872077082
  N   2.99736380114543     -2.52479522211310      0.07483630685777
  C   3.55152688393353     -3.78183104092018      0.22758874771005
  N   2.94034340541525     -4.88633025724526      0.19757848652199
  C   5.02971010496383     -3.73835855959931      0.44389987750862
  O   5.56653216840669     -4.93081985433950      0.61401750498385
  C   6.98201798348128     -4.94719880550996      0.83336387293211
  C   7.40500145536224     -6.32833521343705      1.01116934668778
  C   7.79174500952418     -7.44904116287206      1.16262367492237
  N   5.73088645916780     -2.67713129158597      0.46652490006810
  C   5.13871549867332     -1.43337014044576      0.29235490305951
  N   5.92502874434280     -0.42525617047178      0.33402850370657
  S   5.45622837479516      1.12686393770878      0.15754483796782
  C   3.70751928999916      1.15413475725186     -0.10508871633889
  N   3.06871974292523      2.23273035893468     -0.30046729155458
  H   1.99837771220872     -2.46963363404531     -0.07508657034348
  H   1.93958997110678     -4.77374183321763      0.03838255372598
  H   7.21809216463732     -4.34817879586254      1.71442997753848
  H   7.48425374806463     -4.48807790192851     -0.01957469040014
  H   8.12740879346954     -8.44966572380417      1.29712805078458
  H   3.66973986507381      3.05519731612750     -0.29316508543124
