25
Coordinates from ORCA-job 14560optt
  Br  0.97311838900462     -0.16995663251846     -0.18809855210811
  C   2.85128717981561     -0.15760104620607     -0.06887152366172
  C   3.55305780735654     -1.31134119746058      0.25433226888670
  N   2.89573419662880     -2.54663440776722      0.53655414667021
  C   3.17102703205088     -3.55182665036709     -0.45901182210073
  N   2.45879370520368     -3.72085593206076     -1.47894893435474
  C   4.44150832414103     -4.33706778035059     -0.24108460656577
  O   5.58344780873056     -3.51420965070249     -0.37579944438393
  C   5.75641102531115     -2.49463282265072      0.58313662402427
  C   4.95323220859474     -1.24270954867198      0.28652237627465
  N   5.62530018255570     -0.12513591681881      0.06173548957834
  C   4.93123718300931      0.97337591153941     -0.22386983973195
  C   3.54867477076479      1.01413540371146     -0.31181049886519
  C   5.69959565283704      2.23909633078901     -0.48405574607485
  O   5.13668411313359      3.26927978084710     -0.75368049544893
  C   7.15002802410049      2.16113838818180     -0.39617826899924
  C   8.34545877117398      2.14863193041144     -0.33758563663189
  H   3.18521589255377     -2.87635990795497      1.45271492653670
  H   1.65426114179356     -3.09038792885345     -1.45709851512592
  H   4.52513814131352     -5.11088830489005     -0.99900224536830
  H   4.42747140832974     -4.80126570134832      0.75577052447809
  H   6.80820196554365     -2.21825404535401      0.56200775445194
  H   5.51482361823293     -2.87186370017985      1.58719044315228
  H   3.04951475835858      1.93863770969711     -0.56436671863717
  H   9.40877669946168      2.13469571897812     -0.28650170599474
