24
Coordinates from ORCA-job 14568optt
  Br  1.10797037311948     -0.17769761728120      0.24668808330110
  C   2.96188870624029     -0.00162818236736      0.12284299788933
  C   3.56375125707795      1.19238932893172     -0.15620763290884
  N   2.77693932096863      2.33256105788010     -0.39158937745440
  C   3.08093648647770      3.42745146838661      0.16533719788191
  N   4.11591975408367      3.57101208760243      1.11729777892149
  C   5.25801851631042      4.23746455890828      0.59062139658218
  O   5.25636801227357      5.39800777897137      0.31735432923438
  C   6.37420762577304      3.27299960236561      0.25238597836877
  C   5.88578837848788      2.25357617232330     -0.81906776553849
  C   5.28799669946619      2.94368084055085     -1.96669877850463
  N   4.84133117496216      3.49440978374535     -2.86577200312235
  C   5.00773942617296      1.10427103609092     -0.29817355498287
  N   5.69477328771016      0.03770058137666     -0.05152125343791
  C   5.08001325099797     -1.13184761582500      0.37347746757257
  N   5.65453789146339     -2.19795979674546      0.74386000870494
  N   3.67869588514354     -1.11597849061755      0.34462713252811
  H   2.55115949748555      4.33640863825201     -0.09610337558357
  H   4.36559031663393      2.66150924254971      1.48959796431902
  H   6.69746849485083      2.70910435069918      1.13042161542743
  H   7.21562113541955      3.83653554107294     -0.14315075563884
  H   6.77681459965353      1.74388921420591     -1.18553252987074
  H   6.66158929354713     -2.08521542342219      0.68070169216151
  H   3.21788061568041     -1.98664415765421      0.56960338414989
