22
Coordinates from ORCA-job 14563optt
  Br  1.04252820418106     -0.01631274620232      0.09494661834818
  C   2.91959467885139     -0.13728354920661      0.13344540269921
  C   3.55019846304545     -1.32275974317025      0.07790957785581
  N   2.87360205200649     -2.52262798042061      0.00378758717388
  C   3.43306725722341     -3.79123940692772     -0.04968825856450
  N   2.78961306712936     -4.87451446778369     -0.12260226956972
  C   4.95242272431253     -3.84490570327222     -0.00958753652197
  O   5.52143019046867     -4.90302698835901     -0.04136687124925
  C   5.67739884843930     -2.56796855259344      0.06366565286717
  C   7.18342333118339     -2.61062877027774      0.11824696803176
  C   7.68602618869970     -2.28846836810917      1.45376003511955
  C   8.08279978223898     -2.01850065629895      2.54992924473586
  C   5.00234886766669     -1.40600248459561      0.09687669716213
  O   5.76947438389743     -0.27906082397717      0.14188646410511
  C   5.38827106087256      1.01253735560476      0.25752300912083
  O   6.20294499065460      1.86925980118485      0.33868265761482
  S   3.67363822479967      1.42781405010063      0.26209880506257
  H   1.86521268484820     -2.47155781408728     -0.00218414578062
  H   1.77978844715573     -4.73458275236580     -0.14335255181145
  H   7.60137565124596     -1.90203365439413     -0.59935788376607
  H   7.50107426914054     -3.61494703805823     -0.16109061637581
  H   8.44376663193879     -1.77918970679027      3.52147141374251
