22
Coordinates from ORCA-job 14575optt
  Br  1.61175198103715     -1.30654459869380     -1.35066619322646
  C   3.32344158880810     -1.30298249835799     -0.59472591793702
  C   3.89606707243054     -2.32508615450932      0.06203583530907
  N   5.24526664830791     -2.05474686717578      0.46432250677862
  C   6.49519997043884     -2.49694428227747      0.03413764052366
  N   6.93192905192420     -3.31306665342821     -0.83667314661344
  C   6.17682497350869     -4.10325563885976     -1.71622945245444
  O   6.47212547619266     -4.21775794506073     -2.87539310984651
  C   4.94166896079547     -4.66335773388463     -1.11981453062647
  C   4.81502959969089     -4.81638213916550      0.19393204946192
  N   3.57320380332831     -4.65927497668709      0.81917626947177
  C   3.13662921837521     -3.47279664286776      0.67373241533645
  C   1.83925582174838     -3.16745349180879      1.25241314229948
  N   0.82736717774605     -2.89788645231521      1.71718670046038
  N   5.38721950820331     -0.78808378601048      1.12759435244557
  C   4.80474357225024      0.13990554367290      0.49053139070258
  N   4.00717547862206     -0.10078006675756     -0.62054228153819
  H   7.23804119035347     -1.97364804982725      0.63397422443163
  H   4.06601978332772     -4.65921617939364     -1.75932617636649
  H   5.66429827213661     -4.91430742378039      0.86240107074046
  H   4.88895016936901      1.16175375621733      0.83886272782698
  H   3.57879068140508      0.67991228097117     -1.09192951717956
