27
Coordinates from ORCA-job 14579optt
  Br  2.02468081298963     -1.40441995923733      1.42495171630991
  C   2.93668020040913     -0.23675133060345      0.27819590102163
  C   2.63356528194052      1.08207515255805      0.19952763329488
  N   1.70309194588002      1.73072548306233      1.02732601954597
  C   0.34364891618834      1.86654889683297      0.75862783693314
  N   -0.37152212150596      1.11388254531856      0.04016397005919
  C   -0.24668218771695      3.13896388785245      1.33563086833611
  O   -0.04758564871872      4.25449718803433      0.47755264286780
  C   1.29034280919848      4.52325723307263      0.14607589677073
  C   1.80018133245734      3.59541298732773     -0.95137460857053
  N   1.10615481313749      3.15613360853449     -1.89683415001668
  N   3.18694775847672      3.19429501748897     -0.86346920420022
  C   3.45103266282274      1.84132719744629     -0.73636172303928
  N   4.44405564757720      1.34944695289462     -1.40266591182860
  C   4.76373620503990      0.01267778276167     -1.28712605667629
  N   5.71528568202814     -0.59641256795539     -1.86229038310221
  N   3.92300518522116     -0.76728949682134     -0.46117628061881
  H   2.09387524649957      2.38568395119209      1.68686126304884
  H   0.16070147879621      0.33597780064469     -0.35094554849092
  H   0.18908451056216      3.35449892041150      2.32027457915226
  H   -1.32111393085405      3.01787853064588      1.42999457221593
  H   1.31858059169141      5.55111157626729     -0.22240075240664
  H   1.94696360335903      4.46703109655733      1.01981201772340
  H   0.13958465872536      3.48012089288138     -1.81647224499094
  H   3.75811402261175      3.58169582634445     -1.60679617691493
  H   6.23317931334032      0.05755677867870     -2.44099465411672
  H   4.13641120984302     -1.75292595219092     -0.41808722230702
