21
Coordinates from ORCA-job 14571optt
  Br  2.39770002037347     -0.96693983360567      3.22116515108602
  C   3.45762608313056     -0.86835351164414      1.68994490074910
  C   3.33223792658979      0.15172905132001      0.82045148725799
  N   2.61809118842373      1.30728473459177      1.06163709499588
  C   1.69198015082028      1.96136482546403      0.50769751448216
  N   0.67251580968099      1.71946558114885     -0.41089153147345
  C   0.63513089067545      1.58691772524568     -1.66116053022264
  O   1.67873830806363      1.32611212164792     -2.48654863829893
  C   2.58580674141135      0.56613222159392     -1.78629692496199
  C   3.81022005358291      0.90152143014167     -1.42184187171310
  N   4.21000766168616      0.18671100941986     -0.27465310888120
  N   5.31904311632247     -0.59580682006030     -0.35165987479208
  N   5.48774366372319     -1.51014334247936      0.46429819096868
  C   4.50928450149508     -1.84494327622016      1.46865979963959
  N   4.63203326574442     -2.91244812571950      2.13422331002242
  C   1.50993417534426      3.31763649287575      1.03807687586231
  N   1.38557904385748      4.39457534859465      1.40692029650076
  H   -0.30742898493082      1.63798544287820     -2.19687424808193
  H   2.13282539196155     -0.31789314700227     -1.34838130887049
  H   4.41008790007976      1.72086208860773     -1.79197965143949
  H   5.47784309196427     -3.40077001679864      1.84021306717040
