28
Coordinates from ORCA-job 14578optt
  Br  1.29507378591882      0.89758301620667      0.17816213123910
  C   3.13366281049777      0.46037609873844      0.06718618208446
  C   3.54688745864880     -0.84063933573454     -0.25322215911590
  N   2.57151419765042     -1.78574530555451     -0.55715770845079
  C   2.50582382286887     -3.18067262522420     -0.47065424186954
  N   1.71110603488525     -3.87721497100026     -1.16787698659593
  C   3.27628407102769     -3.91863814835413      0.61128853571971
  O   4.31175074669738     -3.22006096366662      1.23421128402099
  C   5.54938481477780     -3.25970044418908      0.56502922498146
  C   5.58490347715071     -2.35358623259079     -0.67345755560428
  N   5.01068056140477     -2.98643890726328     -1.85520016659753
  C   5.69810397564867     -3.94982005730634     -2.51377175297254
  O   6.76035314220676     -4.39299378592430     -2.14141176657207
  C   4.93540048164247     -1.03427081352228     -0.35767331380043
  C   5.76698192776122      0.04645221299368     -0.09374047660858
  N   5.36345495337595      1.26631419999447      0.23527010449975
  C   4.05612740896983      1.46417715573086      0.30335397549485
  H   1.70207837081494     -1.37396386105131     -0.86906385194971
  H   1.17603331103878     -3.32275494503508     -1.83478292060624
  H   3.62100563970233     -4.86393952088719      0.18317501981240
  H   2.54008769217555     -4.14417528800680      1.38538408363894
  H   5.81227465881622     -4.28182763337294      0.27820311044440
  H   6.28569755244726     -2.89033225534008      1.27855238863142
  H   6.63986954074982     -2.17690832517731     -0.89558180827216
  H   4.17961141578633     -2.61100096830103     -2.28141457600896
  H   5.18963414507106     -4.29645057760169     -3.42605164724546
  H   6.84060961161683     -0.09632853955631     -0.16709351411867
  H   3.71360439064764      2.45956082099601      0.56033840582130
