22
Coordinates from ORCA-job 14588optt
  Br  1.13105598609771      0.12879953188042      0.64131750260935
  C   2.97640384711641     -0.11037150034700      0.35112516245764
  C   3.53253081892165     -1.34468710954490      0.13174486797775
  N   3.22660780186209     -2.69882921565062      0.03907856059116
  C   1.93109619677221     -3.21532649923783     -0.18069664821646
  N   1.05796007549179     -2.74103353045289     -0.95442247106940
  C   1.50482242137358     -4.39914169165046      0.65405554587193
  O   2.15265986725865     -4.83325081507340      1.55900797053429
  C   4.45709449152732     -3.48982711526945     -0.15129369070968
  N   4.58073039527138     -4.72276423349614     -0.34448470710773
  C   5.51578841696870     -2.47581965557911     -0.12189795283866
  C   6.85818564178073     -2.08667407016662     -0.15026845472328
  N   6.98070158638092     -0.74461935269904     -0.01799403210854
  C   5.73630657891437     -0.26546615474166      0.09852966057132
  C   5.05932957016203      0.96642398883805      0.29053765857976
  N   3.75430288442739      0.99241692681490      0.40328178097135
  N   4.87364963036002     -1.30456344997144      0.02641180622723
  H   1.37308388856421     -1.91352947970725     -1.46246055481597
  H   0.51958356236239     -4.79247007911392      0.35835935219510
  H   3.71763554559458     -5.25330813868285     -0.30077179818959
  H   7.72382869248027     -2.71926476647222     -0.25431321755443
  H   5.59664210031150      1.90330641032349      0.35615365874687
