27
Coordinates from ORCA-job 14582optt
  Br  3.73758573695641     -0.70773247206964      2.90490404007151
  C   3.21010146052349     -0.08530606302012      1.20191947965131
  C   2.30290445050300      0.98158122369300      1.09107297703818
  N   1.78355439951578      1.65755741373222      2.15840132017447
  C   1.07238338464413      2.87331105163066      2.06841725363435
  N   0.25304846903232      3.25272995523745      2.95229221264397
  C   1.42410995331268      3.85240298912061      0.94956049255379
  O   0.58438994412458      3.74641210335487     -0.17655128157669
  C   1.19294864016363      3.67802245620093     -1.44887675946045
  C   0.86876847436248      2.38986238348490     -2.21683738475544
  O   1.94505637086894      1.43812054345286     -2.34047754602479
  C   2.38473763930947      0.89713018129390     -1.20064365694147
  N   1.89985894664743      1.40329200554748     -0.09351427680511
  C   3.31770833207330     -0.14878461172638     -1.20689910537893
  C   3.86964785708182     -0.71977800007322     -2.44549151810444
  O   4.70263270554200     -1.59106498983058     -2.45815925408373
  C   3.70583955546061     -0.63673052957624      0.04201141311416
  H   1.87850617165075      1.24048472818256      3.07279136008813
  H   0.08202908374328      2.53733556640078      3.65945474631581
  H   2.47307203726937      3.72495324818378      0.67307184217150
  H   1.28999509267238      4.84082264413657      1.39288340302940
  H   2.27848560187399      3.79768678145923     -1.38497439446885
  H   0.80347243827405      4.51828395021887     -2.02938983951193
  H   0.63273397934146      2.62060471341794     -3.25273826250692
  H   0.01217689074660      1.90863222775194     -1.74294534763050
  H   3.47294732848624     -0.29699147687069     -3.38254573196503
  H   4.41630505581975     -1.45383802333370      0.07326381872768
