26
Coordinates from ORCA-job 14589optt
  Br  0.80323573107390      0.63609630474268      1.94754843661005
  C   2.04686211035892      0.80094057749348      0.52906528177668
  C   3.20921766085480      1.53999125374886      0.70716527503051
  N   3.21589245748584      2.60969224000837      1.62843677471366
  C   2.17635854423115      3.51440045081984      1.51189363394023
  N   1.82788036093230      4.26935880813086      2.46458372902511
  C   1.56827468118307      3.56747028092820      0.10114774872486
  O   2.26323489969109      3.88767832806644     -0.82520303497806
  C   0.08285060630355      3.26024166908690     -0.12548269446526
  N   -0.13176044613839      2.38132985247453     -1.25732281928840
  C   -0.60252001732468      1.02327675322417     -1.13354972786574
  C   0.41943561053829     -0.14082352423214     -1.15270964915160
  O   0.12133013056737     -1.20776237261436     -1.61392612901290
  C   1.80861035849031      0.18373234346646     -0.68794463220719
  C   2.87850222485391      0.10425859100043     -1.57225756386299
  N   4.07855421679652      0.62645308075188     -1.32881649817151
  C   4.21221758012609      1.37932115508048     -0.24759236590267
  H   3.66416202223811      2.54935711764118      2.53176052868028
  H   1.08923461593549      4.91261260610433      2.19157989436379
  H   -0.37678212054989      2.84405306231720      0.76744134886350
  H   -0.39058795060435      4.23315215689458     -0.31111889449820
  H   0.50122883515294      2.56123080739004     -2.02311541187767
  H   -1.28421688054733      0.78367625001516     -1.95348679466596
  H   -1.18479202622786      0.92835775046563     -0.21508301138830
  H   2.73981152385448     -0.39150254994290     -2.52708135581213
  H   5.14176527072435      1.92540700693766     -0.12793206858009
