21
Coordinates from ORCA-job 14587optt
  Br  1.24883487789212      0.03795368984356      0.04278599216748
  C   3.10152566011385     -0.18423559172242      0.12374590313291
  C   3.68908421914791     -1.41461203096808      0.06089361470584
  N   2.93894632951050     -2.57290378782351     -0.07354834643335
  C   3.54466084116752     -3.68870464919668     -0.15512155211714
  N   4.91144613924038     -3.83038661408649     -0.10412236545318
  C   5.71056844784651     -2.74492314250677      0.03758028087142
  O   7.00609538944628     -3.04503235656521      0.02954925737960
  C   7.93063592176083     -2.30550166068111      0.78935474045738
  N   9.14626288506641     -2.34577719075608      0.55653294152182
  C   5.13489517667753     -1.49934899032472      0.11668722978001
  N   5.94362975617960     -0.40788151042747      0.20411300017986
  C   5.38200818747629      0.74974891040118      0.26357124887452
  C   6.24247013437393      1.90661894799586      0.35209806216508
  N   6.93693909966803      2.81509851763279      0.42513962891393
  C   3.91036438306973      1.01781212072509      0.24726722103441
  O   3.48791605734876      2.14972609096203      0.32458692999075
  H   2.98904813946191     -4.61244232230103     -0.26730131423038
  H   5.34589478452839     -4.74037162000581     -0.15862664310442
  H   7.47519673611620     -1.76556879029439      1.61008565359034
  H   9.37457683390727     -2.89526801990072     -0.27127148342689
