21
Coordinates from ORCA-job 14596optt
  Br  1.03626430694286     -0.18870437423045      0.39383545973527
  C   2.90971596024022     -0.10662597927402      0.21958460307480
  C   3.63563506355251     -1.25053620131724      0.13362042158767
  N   3.02786957754510     -2.47984338756553      0.16988197463903
  C   3.58495631576130     -3.72034829569064     -0.12141620095804
  N   2.95950304831507     -4.77530148221304     -0.40442133572333
  C   5.08579311035248     -3.75925068584325      0.03115009613075
  O   5.71177851661999     -4.77342753727118      0.01758684842129
  C   5.78191971451090     -2.43436224871924      0.28404394064762
  N   6.95443130005082     -2.35992876080934      0.71589241560708
  N   5.03097021227827     -1.26008161780687     -0.00501052577993
  C   5.73092447825538     -0.08445727400514     -0.38742561428076
  O   6.82626607478505     -0.09931089213498     -0.84001922345675
  C   4.98049875870553      1.24347674576646     -0.16152769580296
  O   5.58577737644186      2.26484560502567     -0.26240716098012
  C   3.50481314787979      1.21139613410235      0.17534038673359
  N   2.85357434021264      2.28223157554266      0.35450699287693
  H   2.01846578725100     -2.43826381021157      0.23925470233608
  H   1.95050652295214     -4.63925990147695     -0.46452790345731
  H   7.33390539750246     -3.30437689065446      0.81258947442197
  H   3.48043098984454      3.08412927878676      0.25146834422711
