23
Coordinates from ORCA-job 14597optt
  Br  1.01625797965831      0.24157267066267      1.78472978359535
  C   2.53588044757606      0.61707427231940      0.76399960340526
  C   3.51861416094625      1.40095325731005      1.21382213761216
  N   3.25431395672204      2.41069058172799      2.13853714694644
  C   2.30476741958032      3.31520756050925      1.68706219626250
  N   1.87437205734550      3.17113361247788      0.50987687241822
  C   0.82980866719435      3.75322633991828     -0.15607082971184
  O   0.58540192968975      4.92812308614700     -0.22438818088667
  C   -0.04623166777715      2.73994347387963     -0.92658603191744
  N   -1.19416980593590      3.09385563030892     -1.31917527521634
  N   0.33443771359357      1.40126716235769     -1.09998971208943
  C   1.60142355097329      0.91543059631355     -1.51609784623545
  C   2.55956816564903      0.47949069022425     -0.69103185544774
  N   3.86117040155626      0.16535033882899     -1.13740698708869
  C   4.95053313139026      0.79565294890923     -0.60117715769342
  O   6.06313152907095      0.73488761408025     -1.02115172082827
  O   4.67177605062263      1.57706390040513      0.50185857223997
  H   3.84573174677406      2.61772303542094      2.92747744465476
  H   1.95702982534282      4.04582320875499      2.41814792592107
  H   -1.36253955639679      4.06275810601941     -1.05289171381919
  H   -0.43998188041451      0.93045059732216     -1.55378374840888
  H   1.79577860365255      0.87815880083566     -2.58601970739537
  H   4.01092557318631     -0.21383748473334     -2.06074091631698
