23
Coordinates from ORCA-job 14590optt
  Br  2.93010062321023     -1.28703071830844     -2.06204950139276
  C   3.55705036943067     -0.06107058749180     -0.80669259459120
  C   3.56488008804513      1.26508747852631     -0.91705804255566
  N   2.89557374146167      2.08701665771740     -1.82600127920336
  C   1.53480309020321      2.27527690458198     -1.44452693315585
  N   0.59929023198658      1.44211258627279     -1.52947559683636
  C   1.24429824986338      3.61094277245193     -0.79433993571008
  O   1.97496951550419      4.54844305881209     -0.94304785680230
  C   -0.01392858772609      3.68575617812197      0.05455971549186
  N   -0.88406545995566      4.51325242621788     -0.34339828736679
  C   -0.14778499090473      2.85199683417681      1.26430985884454
  C   0.74878685016122      2.07554198880658      1.85660067720230
  O   2.02478217193849      1.91503255990151      1.35020186232121
  C   2.87896615849334      1.22797877991458      2.06611296023656
  S   4.18695528166796     -0.62376825412279      0.73886462427354
  C   4.15782800505450      1.15311401687425      1.27485277573396
  O   4.21258773266516      1.92931696421247      0.10219799607185
  H   3.35486615653776      2.99466762361951     -1.87562155128745
  H   0.89468127866252      0.57694156983913     -1.98289933618672
  H   -1.70016201084132      4.52142773700825      0.27118266188632
  H   -1.11221880135392      2.91147328416731      1.75518254403119
  H   0.57574867177854      1.51734125048507      2.76645063599135
  H   5.02199163411716      1.36714888821518      1.89759460300384
