25
Coordinates from ORCA-job 14598optt
  Br  3.73022309249788     -3.12378657027111     -1.17856697003827
  C   4.89480335167850     -1.78490338659410     -0.56770084820174
  C   6.21386287107592     -2.09099306732593     -0.24994641216191
  N   6.99055838238027     -1.13131474980886      0.25494355188450
  C   6.67694252284822      0.13708167384940      0.26090944822541
  N   7.71145941210670      1.02227899257364      0.58794615658999
  C   9.10673676118405      0.99967018902804      0.42210484020152
  O   9.69101543182165      2.02679090592374      0.65886331847119
  C   9.98406121912006     -0.18363206971756     -0.11016470610713
  N   11.02867476527071      0.08225237391171     -0.76818316439182
  N   9.60137845431578     -1.45622273927966      0.22193273788862
  C   10.08345579970042     -2.63876525631677     -0.33804898512840
  C   9.31693857324232     -3.74428577227504     -0.38692152690104
  C   7.94660814577461     -3.49255830271517      0.11741706216520
  N   6.96089780054776     -3.20381081473005     -0.63449733121082
  C   5.38571085826319      0.54192579654224     -0.08431280508765
  C   4.49384026813059     -0.45641271118733     -0.45553672142123
  H   7.42857558197397      1.96253679044542      0.83193472756682
  H   11.16039291338649      1.08787740458507     -0.83786211230072
  H   8.62051640613630     -1.46712233613834      0.50723130741454
  H   11.08596048449084     -2.59492164485944     -0.74184729029062
  H   9.65865263395440     -4.66510872222301     -0.83220759849037
  H   7.89563727782015     -3.22212168851239      1.18132841164819
  H   5.09523723893900      1.58296872199144     -0.10312327580924
  H   3.47785975334005     -0.19442301689589     -0.72069181451500
