23
Coordinates from ORCA-job 14591optt
  Br  0.92957476104953     -0.15993206746117     -0.38733543005470
  C   2.80856684730825     -0.14019517696860     -0.26582041271853
  C   3.51569514191536     -1.27943874664034     -0.15737785288657
  N   2.89896838528540     -2.51691986098105     -0.10211724845834
  C   3.51728184712089     -3.73794606974621      0.07364776969570
  N   2.94223910054894     -4.85592582477913      0.20163142885877
  C   5.02847222014463     -3.70300262700106      0.08665685734405
  O   5.67633700163330     -4.70668069644886      0.23392765528434
  C   5.70268654111188     -2.39683415997166     -0.06428583602105
  N   7.07583022492300     -2.50154681095243     -0.04649901139932
  C   8.02969797454783     -1.64266905797745     -0.57313328531985
  N   9.27668498088404     -1.84205782897857     -0.59580770617990
  C   4.96429811295393     -1.26203371152622     -0.10608828401603
  O   5.65237228623888     -0.08177805672899     -0.11643133495658
  C   5.14647489501406      1.17865115490546     -0.00149948062796
  N   5.87010339127662      2.16714252530634      0.24346468660376
  S   3.44183499703712      1.48068024331193     -0.31211377536085
  H   1.88989494295052     -2.51610699837175     -0.13002401553253
  H   1.92583231813876     -4.77977697919101      0.17772155473711
  H   7.38145775806182     -3.44249452649827      0.17980335888643
  H   7.62865963292659     -0.73254756077110     -1.00255393471229
  H   9.53836702005560     -2.72856961297165     -0.16231545696706
  H   6.84966961887294      1.90998245044182      0.35754975380139
