23
Coordinates from ORCA-job 14593optt
  Br  1.21087599489107      0.04486240182942     -2.16120752976507
  C   2.97552011106764      0.04833040722655     -1.49816013052986
  C   3.24327152076897      0.51983517009456     -0.25259324616065
  N   4.54087056113276      0.49423902172819      0.19579951795405
  C   5.47446188822041     -0.48369345187716     -0.18574637313158
  N   6.59027169904055     -0.71297275412258      0.37445153911860
  C   4.95812074345191     -1.30747887388392     -1.27086012169945
  O   5.46399835162891     -2.59124419928231     -1.33757644417306
  C   4.92050581313080     -3.43780044774365     -0.41294679376354
  N   3.93171140225779     -3.25798445538923      0.34820381400962
  C   2.99484059530618     -2.26215827453800      0.46002161346589
  N   2.96634909985299     -1.41960726201570      1.41005810956498
  C   2.16565859435750     -0.29685112245114      1.48371165994572
  N   2.27677457340199      0.74731559980922      0.73897281301732
  C   5.64068543411202     -4.68349551499528     -0.38639638522864
  C   6.23265218954884     -5.72134023490723     -0.36859382271160
  C   3.87061497773396     -0.96268877508246     -1.98373134677833
  H   4.66292335153594      0.84254660333696      1.13777011111003
  H   6.76902873883822     -0.09364264155604      1.16156737148838
  H   2.19563957293084     -2.31788461339360     -0.28571534967106
  H   1.48262465778820     -0.25430501422165      2.32792316323967
  H   6.76220666270954     -6.64461417383386     -0.34331133050291
  H   3.52739346629290     -1.62336739473107     -2.77064083879854
