25
Coordinates from ORCA-job 14603optt
  Br  1.15950560678275     -0.12871079672262     -0.30619090666906
  C   3.01095895274514      0.00330112546810     -0.09899428925435
  C   3.65494974502996      1.19328061270683      0.10420494530902
  N   2.91010834780446      2.34898914490925      0.25064103785733
  C   3.23420664868549      3.55292000112742      0.00129164344686
  N   2.27318487840525      4.51903992487862      0.25462102034280
  C   2.40688998124568      5.88898389752780      0.35220844518741
  O   1.48368911192368      6.59269685448530      0.66134717759035
  C   4.48786884584657      4.02341349728428     -0.72916957687385
  O   4.40477930988972      4.96321739212951     -1.47387162157988
  C   5.78642504486872      3.27665787410860     -0.55166250950967
  C   5.84062506112467      2.32203724664210      0.63569566981839
  C   5.08063504535535      1.06810113829978      0.32796512291089
  N   5.74065981176321     -0.04041426649522      0.27723498209314
  C   5.09289691805032     -1.22779956753307     -0.02938192355540
  N   5.63019120544991     -2.36538255395154     -0.18149239414312
  N   3.69689754875299     -1.14787907212305     -0.17204452538677
  H   1.37137969374349      4.15388654204811      0.53842290902498
  H   3.40909568559692      6.26886558273975      0.13600363489218
  H   6.56002486431370      4.04231490288599     -0.47956321738898
  H   5.97725219102295      2.73904974235056     -1.48571059930543
  H   5.41412433490873      2.80103709214407      1.52242737072669
  H   6.86875021571251      2.04660438015706      0.85583555709626
  H   6.63253670997483     -2.28705816601853     -0.03875946356155
  H   3.22136424100281     -2.01915252904920     -0.36005848906823
