22
Coordinates from ORCA-job 14614optt
  Br  1.43425059337506     -1.70631235475000      1.27350650348171
  C   3.08801069182893     -1.19060053003198      0.53917240560765
  C   4.21855971119277     -1.19514124411275      1.28680265356310
  N   5.36114316889989     -0.68693076594482      0.70834397582834
  C   5.57063200470362     -0.68122916955310     -0.67104878190119
  N   6.63103450381039     -0.40540068852939     -1.30508239385293
  C   4.35316394996529     -1.15891838337514     -1.35241928013190
  O   4.51535029620555     -1.71600928230362     -2.58558528756772
  C   5.21028351633958     -2.88811073281313     -2.72153943827273
  O   5.58221464092275     -3.24673261240870     -3.77837270491660
  O   5.46844150332537     -3.62540175650199     -1.60402757738594
  C   4.74810628277682     -3.60422994497339     -0.42547888222695
  C   5.38354200550060     -3.51165674823224      0.73178407718179
  C   4.73111828387516     -3.35648071899615      2.09006582010239
  O   4.55177704179835     -4.24878962692125      2.86435670814999
  N   4.43943519442796     -2.00933151221266      2.41951269578630
  N   3.20090853083664     -1.20501223221786     -0.81601770632754
  H   6.18578141288210     -0.70504630139216      1.29305102390718
  H   7.40045957079425     -0.12420678330468     -0.70135094472761
  H   3.67415200141496     -3.69843053146302     -0.53167515117741
  H   6.46636328017791     -3.43282051726905      0.72263355258324
  H   3.83627181494599     -1.90720756269288      3.22636873229684
