22
Coordinates from ORCA-job 14618optt
  Br  1.33637734941449      0.14446253020988      0.04728401073032
  C   3.21214379567570      0.01159421333703      0.14104164391416
  C   3.81103779543984     -1.17910822528455      0.00696240650128
  N   3.30072973316751     -2.44344567345662     -0.19127929453599
  C   4.29690343632112     -3.39737783290760     -0.28924097551174
  N   4.26729892606167     -4.64015948261413     -0.47154779480447
  C   5.60348516059244     -2.62639508267444     -0.12168288212606
  O   6.70805168227397     -3.04449128135368     -0.13604498170866
  N   5.19496704982026     -1.27078901903777      0.05839478540400
  C   6.02675006910277     -0.15332554261433      0.25096719383991
  O   7.21816984536919     -0.20649021162136      0.28400681013328
  C   5.21255638460936      1.09927620630315      0.40365831349990
  O   5.96560668188740      2.17264373254158      0.60419117168914
  C   5.25440109228325      3.40224264913475      0.76000864060198
  C   6.21990745249795      4.47864953355552      0.92747581509974
  C   6.98450801064975      5.38667549017181      1.06612471694940
  N   3.93680188476166      1.15164339494657      0.34783615064407
  H   2.31042625077575     -2.61216278079783     -0.26495832373694
  H   3.32222437851039     -5.00904589883552     -0.56507478196653
  H   4.59460726639970      3.33066356669430      1.62725915654341
  H   4.62806132936244      3.57298364572411     -0.11769298904778
  H   7.67598442502335      6.18595606857913      1.18931120788757
