19
Coordinates from ORCA-job 14610optt
  Br  2.48247378062668     -1.41306535362999      2.02133385233765
  C   3.24994835366004     -0.43811199475329      0.62917911298941
  C   2.81516073295551      0.78943809950106      0.30126083522470
  N   1.87287986309619      1.60675350788501      0.87630373415869
  C   0.68456912434854      1.71745096513592      0.43183457370266
  N   0.17000593720433      2.97223444071811      0.40759355982350
  C   1.05971338534384      4.06033640905883      0.31716159116762
  O   0.69467523441871      5.18886711006505      0.39144205636201
  C   2.55443369916180      3.69601714843977      0.06500410331914
  O   3.41153652467917      4.29260982416733      0.63681198814943
  C   2.97843010983902      2.77679896355933     -1.11573306880424
  O   3.04483875665836      3.19980487786880     -2.22227333704855
  N   3.40490334234684      1.45333830535889     -0.76577257282010
  N   4.34035875513185      0.88000762337097     -1.57682108745792
  N   4.77884765886943     -0.24290125778248     -1.29856272530125
  C   4.34888495467125     -1.00451849799818     -0.13803598128652
  O   4.89707410105622     -2.04145849099196      0.09677275368120
  H   0.09260080477667      0.90985865108296     -0.00280503363875
  H   -0.81733511884449      3.16553966894388      0.30830564544131
