23
Coordinates from ORCA-job 14626optt
  Br  1.61921735151919     -2.40072256896349      0.60280939400647
  C   2.76531035038819     -0.96501474275239      0.27396598904255
  C   2.42552252825061      0.31896697173219      0.46704272098472
  N   1.13291818577986      0.70499095838420      0.93661983938804
  C   0.59376578744945      1.75999587356720      0.23012765621853
  N   0.12624410039477      2.80174855821505      0.77416731971256
  C   0.11791382332034      3.98234580647488      0.04109245117837
  O   -0.81798997278571      4.70805782982004     -0.13690919740353
  N   1.41018559455226      4.36794179696286     -0.43748610453270
  C   2.48866727520197      3.49664631791715     -0.61861701414301
  C   2.94777131859844      2.72473662984348      0.37111563544156
  C   3.43574512320698      1.34766298920547      0.14841178138362
  C   4.62410407517644      0.95624601996440     -0.34193882643549
  Br  5.95295623213530      2.19978507959976     -0.81747459543086
  C   4.96484686677247     -0.45961033143669     -0.52751602610401
  N   6.01308768472416     -0.99746871901597     -0.95166212102526
  O   3.96036312403843     -1.35139511978889     -0.15797182562726
  H   1.06573370553421      0.83871917084123      1.94075055294454
  H   0.69467978277946      1.62955136209124     -0.85028190134897
  H   1.32777750270228      5.15665388202713     -1.06322894812636
  H   2.82939451847097      3.35276645785198     -1.64149575791930
  H   2.57331715792621      2.91898094455610      1.36989985509972
  H   6.71046788386367     -0.30258516709693     -1.19942087730391
