22
Coordinates from ORCA-job 14629optt
  Br  1.00361181990424      0.04872807626842     -0.52757553139324
  C   2.85452999903774     -0.08037088688915     -0.29276002222731
  C   3.53255905637701     -1.24501464548861     -0.12614739959081
  N   2.92989487918681     -2.50180175402407      0.03057235577613
  C   1.79631989087133     -2.64000738037317      0.90272326863930
  N   1.03208343603899     -3.61811046695545      1.03729091416167
  C   3.52399246213494     -3.64001777259926     -0.54991370296768
  O   2.91292291585849     -4.64979178763203     -0.78420641923643
  N   4.86114588452680     -3.49573218881245     -0.83284144308100
  C   5.65012150320308     -2.55585726320784     -0.04997229366312
  C   7.02668008587880     -2.51091895651068     -0.54917912447790
  N   8.10736662379276     -2.46151289008346     -0.92170368712945
  C   4.97310781201949     -1.21631231711778     -0.15301773729160
  C   5.60301223373997     -0.04883824725038     -0.30668440302459
  O   4.95160920804285      1.11210314996397     -0.38915360331417
  C   3.56819964051734      1.19718605750661     -0.39837373448680
  O   3.07570096046561      2.27416799502435     -0.50482071527472
  H   1.69625500047486     -1.75893386626105      1.53078951695728
  H   1.23085159987360     -4.36806691750964      0.37796024168999
  H   5.29767426488688     -4.35877637109070     -1.12595532460901
  H   5.69831753893302     -2.86752572020478      1.00195574752604
  H   6.67704318423530      0.06340415324720     -0.37398690298258
