23
Coordinates from ORCA-job 14624optt
  Br  1.11029474346035     -0.42319206096299      0.05944216022746
  C   2.97120726688105     -0.22760265740003     -0.01949488174555
  C   3.77449826473448     -1.31755019058941      0.10192216538904
  N   3.22232417513218     -2.57530638450458      0.25357691167822
  C   3.90771515095599     -3.63670200815253      0.04361323560318
  N   3.29791827728857     -4.85844800021839      0.01629697315143
  C   1.91696203198797     -5.03024269598487      0.07625207144340
  O   1.42429436023813     -6.12074537974676      0.03914268793432
  N   5.29842029833710     -3.62777099518865     -0.14615386707193
  C   5.98542344536179     -2.45152389804723      0.38644775742471
  C   5.22956263295829     -1.19192462414064      0.06341612415618
  N   5.91018446977729     -0.13608711327394     -0.14939663996093
  S   5.21360579368291      1.33443090053878     -0.39396447914068
  C   3.45718127151654      1.13830163511483     -0.23336191574593
  N   2.67512219973508      2.13058478134461     -0.32523327747062
  C   6.05040470021193     -4.66600072192740     -0.65863328710373
  O   5.63775184024063     -5.74214997399013     -1.00083509677869
  H   3.86195053859563     -5.67808781766793     -0.18045522872830
  H   1.36409337568212     -4.08835014462352      0.15719845101702
  H   6.98732093672940     -2.39040548232599     -0.03052430551069
  H   6.06288983516937     -2.54684162872800      1.47469047444014
  H   3.16510917259920      3.01095175237028     -0.47808691124901
  H   7.11376521872394     -4.39533729189548     -0.72585912195906
