25
Coordinates from ORCA-job 14628optt
  Br  2.05618398067111     -1.97769291561831      1.74515614592437
  C   2.93674208932996     -0.63218728595328      0.80822104085244
  C   2.48111933347687      0.61532525202363      0.72556484326474
  N   1.33166902189803      1.11524933677102      1.34020047435050
  C   0.64176944384454      1.81115522656468      0.53330626996167
  N   -0.28743398367286      2.74641534093501      0.88610613730556
  C   -0.18458235638445      4.03956820247411      0.33860100624357
  O   -0.98479033665801      4.88766435304149      0.64722642135300
  N   0.86256549970762      4.32022751232642     -0.51044850786125
  C   2.09979378719175      3.66696530924994     -0.96319385822122
  C   3.02395249662909      3.02021136608036      0.10511563576345
  N   3.22267744930105      1.56760871479212     -0.03787606038518
  C   4.19065136793217      1.16295010738292     -0.90359935452422
  O   4.75005989187905      1.91106972275681     -1.67355293947070
  C   4.60438304879653     -0.29694963969859     -0.82019917683292
  N   5.47055339993209     -0.80618795217066     -1.56057484562497
  O   4.06705231743389     -1.05067988163495      0.18262704620832
  H   0.80937288196616      1.78164811899073     -0.54028402402197
  H   -0.65421439184429      2.74170302055955      1.82939628321786
  H   0.75954809497233      5.27099270306137     -0.82936063575470
  H   2.66507130347738      4.46602606476562     -1.43776277005256
  H   1.90738058738103      2.93773666123408     -1.75215878488297
  H   2.66730918022619      3.22468639873008      1.11073349419388
  H   4.01479116442982      3.45489589321321     -0.00148448648262
  H   5.80037472808289     -0.09440162987740     -2.21275935452408
