22
Coordinates from ORCA-job 14636optt
  Br  1.09343544683528      0.91116254431389     -2.35079562994799
  C   2.66454873616375      0.79089847503794     -1.31900007729765
  C   3.56210603316212      1.76680740575337     -1.18483244411717
  N   3.27529713943119      3.08428525435626     -1.52159140888931
  C   2.23238550137757      3.85853290365909     -0.99035863840019
  N   2.08694641515183      5.09154716076185     -1.21834916060307
  C   1.15126729217794      3.23541229477118     -0.07687663424046
  O   0.05466258970720      3.71360031284786     -0.05689757464484
  N   1.56985845620146      2.14078087014687      0.70336314351447
  C   0.64191022935097      1.42756292260249      1.21679690955351
  N   0.89282890816635      0.23725895687395      1.82327743091311
  C   2.10835038231127     -0.46306850160123      1.84346126578694
  N   2.25308297947991     -1.40549775169601      2.66373853032291
  C   3.09904730525761     -0.00515750223223      0.82024588479721
  O   2.68949586363699     -0.27792399524109     -0.48777647639469
  N   4.13886216214462      0.60626219086050      1.13984186026312
  S   4.95804476192221      1.38460842055705     -0.13964239249945
  H   4.01645693087572      3.62935383010468     -1.93592051486717
  H   2.81438367584226      5.46552130252277     -1.82774160499451
  H   -0.41190123697245      1.70722795014212      1.17771970763619
  H   0.15042981238713     -0.20951632737993      2.34213789961337
  H   3.15650061538906     -1.85865871716141      2.55019992449565
