23
Coordinates from ORCA-job 14634optt
  Br  1.44314652917443     -1.04956767290625      1.70179618502663
  C   2.52974554371916     -0.22427206857321      0.40452331150406
  C   2.57274926531214      1.17185639218796      0.33301691411112
  N   1.80112361836603      1.98277025690265      1.21872725230688
  C   0.50087702586864      2.40619089765349      0.76679114929425
  N   -0.56673025206717      1.75722760227186      0.80632200240849
  C   0.59576175004001      3.74856951528788      0.06455593583923
  O   0.25469296054058      4.80434059992998      0.49047510393406
  N   1.38966267806065      3.59199157271786     -1.12527559861445
  C   2.73208379023047      3.95300924610030     -0.87279247432169
  N   3.68242610403048      3.13762796895070     -0.68859934163706
  C   3.44876757100417      1.75341882054976     -0.60519963008915
  C   4.19998732271083      0.90814665083753     -1.42244966231556
  N   4.11299415036278     -0.40471665604790     -1.37320906688705
  C   3.31204727435975     -0.97761784947915     -0.47365213756279
  C   3.40105986926919     -2.47509196950344     -0.52519341026265
  O   2.90526255615212     -3.24691100447887      0.24320764263657
  H   2.35029458286621      2.78364212526065      1.51612522280256
  H   -0.43173506590611      0.85470943817233      1.26610273837836
  H   1.34674144056642      2.62648844816847     -1.43955605729123
  H   2.91861554838827      5.02075282445149     -0.81315265079851
  H   4.88534500233751      1.34389077885365     -2.14027102079871
  H   4.02108073461344     -2.80145591730775     -1.37829240766337
