25
Coordinates from ORCA-job 14635optt
  Br  1.08541903786872     -0.05728717289843     -0.23019293830891
  C   2.95070545537922      0.04382382461328     -0.06908261645883
  C   3.60676635474994      1.20255625190208      0.22999676526053
  N   2.86552036069706      2.35808353573957      0.45314449651816
  C   3.22497788192158      3.53160071191284      0.12286163753100
  N   2.23761652359288      4.52224251584861      0.30184655403050
  C   2.26297907529158      5.83944026262860     -0.04393635298280
  O   3.17474425292192      6.41364429178433     -0.59441891001599
  N   4.39752306444159      3.99536267161907     -0.41680161321375
  C   5.67172225884848      3.44177054405890     -0.24578960286959
  N   6.70358236414752      3.85012212297558     -0.84831516564299
  C   5.77684330353060      2.34196490307288      0.77576455484435
  C   5.03661336236288      1.10625893613255      0.35103557031095
  C   5.69835647630434     -0.05314888449016      0.11761832516904
  C   5.00803846914788     -1.27146032034905     -0.23826128758148
  O   5.50255904251388     -2.35741731968048     -0.46377786344033
  N   3.61791023615282     -1.11295444902889     -0.29412383246101
  H   1.38208908308992      4.14541723448096      0.68311917970081
  H   1.33165196974142      6.35257388466160      0.23186515011516
  H   4.35303600948840      4.94271249231416     -0.78449015039175
  H   6.49560234396662      4.59001549313550     -1.51839104667277
  H   5.35614815580751      2.70166551307214      1.72047144976104
  H   6.83242604352333      2.12870406463835      0.91343062590692
  H   6.77350333297668     -0.11754028800661      0.20805251352778
  H   3.09966554153318     -1.94915082013739     -0.52762544263603
