20
Coordinates from ORCA-job 14641optt
  Br  1.06875543609267     -0.22758049778844     -0.20392866405136
  C   2.91391543684201      0.00010342002618     -0.11376033410340
  C   3.50875679878918      1.20607894560626      0.06260691567017
  N   2.72527089540731      2.34704411207524      0.17189054679914
  C   3.13159810040591      3.49031766912854     -0.17267935041618
  N   4.38282461544159      3.87690112009137     -0.65258907454394
  C   5.62958382698378      3.45632857695227     -0.23565896947583
  O   6.62070025195191      4.08583721647258     -0.40165130710932
  O   5.65752792324070      2.28902688076663      0.47557346440982
  C   4.94483236233746      1.18173829693400      0.12557435149752
  C   5.64226625809016      0.04003181632426     -0.05210759713195
  O   7.00780693868031      0.00062420839810      0.00495931342335
  C   7.67051577362245      0.64421239452976     -0.99402169050748
  O   7.15042593697944      1.23388270173946     -1.88288377593368
  C   4.97679965371884     -1.21981552407529     -0.30406258486207
  O   5.47984517130653     -2.27537554045789     -0.51674244725667
  O   3.58441756583392     -1.13510067074473     -0.26720599377764
  H   2.42487152117728      4.31462821555124     -0.14031493788436
  H   4.43114890741812      4.79544542887415     -1.07028125222330
  H   8.74513662568035      0.52167122959629     -0.83671661252280
