24
Coordinates from ORCA-job 14644optt
  Br  1.17967842163187     -0.11885527220485     -0.40074821687171
  C   3.03050393260568     -0.17054225936702     -0.12133556241236
  C   3.70812581188441     -1.30429687524313      0.19633225434957
  N   3.05011225257946     -2.54089337021906      0.41530958760271
  C   2.20359414341860     -2.72342281700345      1.54391600091702
  N   1.96795096606744     -1.89285515393193      2.45452599564946
  C   3.35484357176305     -3.67615108646542     -0.32627087731623
  O   2.76158405528803     -4.70519666972150     -0.25476497348875
  O   4.39586635704041     -3.52324227557038     -1.20432175976901
  C   5.70121574135584     -3.31876154229912     -0.76986779176450
  N   6.67099668161332     -3.71239458495857     -1.44865167045355
  C   5.86176580453039     -2.52109157685462      0.49812452920162
  C   5.13475974973895     -1.21742378771220      0.32216148966739
  C   5.78412992012775     -0.04126323573701      0.17406220605197
  C   5.07200950716317      1.18866524984057     -0.10956479859654
  O   5.54825368919301      2.29267171547779     -0.24257665599626
  N   3.68425783095059      1.00630963740109     -0.25424389083704
  H   1.76008230271021     -3.71281003874937      1.55084511913856
  H   2.44959523006062     -1.00339735030900      2.32165411483891
  H   6.36526990540075     -4.22197305530612     -2.27728606302124
  H   6.92414943722452     -2.37230484072022      0.66233906119830
  H   5.44484579096383     -3.07661896329708      1.34342234123343
  H   6.86084903652160      0.02823923460064      0.23752040255660
  H   3.16455986016644      1.84260891834999     -0.48658084187835
