22
Coordinates from ORCA-job 14646optt
  Br  1.90248135898712     -1.67795897586591      1.73758845715603
  C   2.88613217808305     -0.44822732257123      0.69200052219168
  C   2.50686224160600      0.89703069517224      0.71388369279385
  N   1.48878270041787      1.46880622115606      1.47370242027184
  C   0.38044670422831      1.62454120832531      0.90009790578617
  N   -0.51433062072237      2.64944375011457      1.29045391965482
  C   -0.22650824566290      3.56940822349564      0.20161369035506
  O   -0.90216099458613      3.69335782498252     -0.76061413740528
  O   0.99651198140429      4.14479371928949      0.36232692136946
  C   1.99223527892632      3.81540532546678     -0.60448520161932
  O   3.07305675305202      3.14064992836248     -0.01493034883652
  C   3.25787805215941      1.78477390275935     -0.06967979746764
  C   4.31460176086607      1.29543180838275     -0.82003471262834
  C   4.58006548742073     -0.06493446887173     -0.75895554177441
  N   3.88203145098619     -0.92111664655059     -0.01446933291395
  C   5.66733706088195     -0.60840525183484     -1.53762861863159
  N   6.53717361375768     -0.99577311359521     -2.17502870533161
  H   0.10774052411973      1.14553248080346     -0.04444726166185
  H   -0.12944090540907      3.05069059288317      2.14639433321828
  H   1.54337700453514      3.23311203450709     -1.41256665003932
  H   2.39513763081209      4.75312707787558     -0.97460709847606
  H   4.91758898413648      1.96131098571303     -1.42061445601131
