26
Coordinates from ORCA-job 14652optt
  Br  1.97882760595657     -3.15313963568179      0.16632366042614
  C   3.30836806866869     -1.82643868947069      0.11528792779925
  C   4.36672888902884     -1.76757775287797      0.96240222645503
  N   5.27504438162825     -0.68511703235697      0.83389127479707
  C   5.71985576174086     -0.16002858597537     -0.37981096969144
  N   6.49883559342469      0.80563596626024     -0.59568331611025
  C   5.11802366696437     -1.03546039431707     -1.43659841787015
  S   3.30506838953812     -0.89533305013608     -1.37174776575150
  N   5.79776916490901     -1.97881234737960     -1.89478076355853
  C   5.27978975133018     -3.24933649590124     -2.27696680015279
  N   4.67080455322166     -3.57917969058428     -3.32796046442178
  C   5.61838684940055     -4.16805014420014     -1.15159917637155
  C   4.83299061306716     -5.13189726410291     -0.68162021207811
  C   5.07307047464987     -5.87168189555587      0.58257554624078
  C   4.84877973682709     -5.40884897726825      1.82279115679632
  C   4.28881713350687     -4.06618619873142      2.05279673649691
  C   4.90829591067691     -2.97243968988749      1.60006313946435
  H   5.76175526798325     -0.39867934675032      1.66974920716911
  H   6.81496085279104      1.24860761649085      0.26644346967801
  H   4.51069784185107     -2.77478096530478     -3.93332573588281
  H   6.52416263109160     -3.90638067584544     -0.62014696530628
  H   3.93572137272415     -5.39358979793404     -1.23895834418075
  H   5.34724704092883     -6.91831077495087      0.47770638242929
  H   4.93983286756984     -6.10187761025367      2.65285829968751
  H   3.27690668141013     -4.02103432944315      2.43654044186958
  H   5.96525889911034     -3.06606223784163      1.36576946206661
