23
Coordinates from ORCA-job 14658optt
  Br  1.29955125902137     -0.43728653282612      0.12972689977757
  C   3.11633767485690     -0.04185355262114      0.18262720183550
  C   3.62536474199022      1.18483583214046      0.10917458060071
  N   5.05897814084789      1.26882287010827      0.15777770205688
  C   5.71690133221125      0.16227133133825     -0.38594694741423
  N   5.23012313031826     -1.00545701369685     -0.34646790316140
  N   3.99234161760242     -1.12371690985155      0.28868564697613
  C   5.39077931954188      2.59856156818346     -0.07347849763596
  N   6.72503566793697      2.90251010840596     -0.14303458318200
  C   7.21216318330273      4.14409840624035     -0.49615986445441
  C   6.71297086515969      5.18626845324753     -1.19914755140630
  O   7.68107294126591      6.10941828232004     -1.26115339551994
  N   8.76932798301558      5.62286949327027     -0.59556617943654
  N   8.49514012550041      4.48437003126576     -0.14885641584524
  C   4.29215424670949      3.38234089328392     -0.19272463284514
  C   3.09660257962470      2.54580335468025     -0.07965883441087
  N   1.85413098268032      2.83350156596042     -0.08494005463923
  H   6.67653366624818      0.31746983742768     -0.86193176490381
  H   3.58066255541879     -2.02232190043820      0.08640167240113
  H   7.36719004099931      2.33114286957214      0.38724435783202
  H   5.78356285838119      5.40008404567002     -1.69151678584873
  H   4.27871634104470      4.45670583642515     -0.25638369895021
  H   1.71735874632178      3.83456112989390     -0.21067095182593
