24
Coordinates from ORCA-job 14668optt
  Br  5.45149324072203      1.69959756321455     -3.55648411876963
  C   5.48585257972429      1.21252251276810     -1.74742706787685
  C   5.92747385262369      1.99747040076937     -0.76897108794282
  N   5.91500397609415      1.36370344767045      0.52015453316236
  C   6.37526464806211      0.05096563337713      0.40962132934262
  N   6.03574882720543     -0.71668723529270     -0.53585196424601
  N   5.10371034762387     -0.10574185658626     -1.41067600996255
  C   7.45975875492856     -0.41295532594380      1.34281398847984
  O   7.32952071446907     -0.46008487075432      2.53261227598331
  C   8.76988121188881     -0.82925445679199      0.67180346076472
  N   9.51080567916333     -1.74589740316838      1.11674582308747
  C   9.15467446975235     -0.08134958895211     -0.55104653040516
  N   8.71644667564876      1.09946462303359     -0.69111665496930
  C   8.97896484515566      1.74816563607397     -1.90956337307515
  N   8.50306162153253      2.86757000718944     -2.24012326714487
  C   7.67887690551200      3.65092146043772     -1.43289094891727
  C   6.52557200040611      3.33289673044213     -0.84040222317691
  H   6.39279407942723      1.90116051972935      1.23142910497695
  H   4.98376913244562     -0.70061503082583     -2.21765326550650
  H   9.12907655933532     -2.12478976436486      1.98846655170052
  H   9.79514732786216     -0.59389337178031     -1.27542225580747
  H   9.61382886091149      1.22033445697831     -2.62561946178002
  H   8.00577126498303      4.68480510495437     -1.39716149665272
  H   6.00550242452199      4.12769080782203     -0.31523734126456
