23
Coordinates from ORCA-job 14667optt
  Br  4.20706291934627      0.05686433050441     -3.43172075254594
  C   4.83904010240755      0.49142511629489     -1.72705291404261
  C   5.89395095585470      1.26567004879185     -1.46491652359187
  N   6.20138013540002      1.44518381046151     -0.08930528869094
  C   6.16895809733792      0.12880894589801      0.50552670817555
  N   5.18201895403406     -0.65517111871928      0.29959762805404
  N   4.30543613762567     -0.20889482429215     -0.64001272591555
  C   7.35580856725649     -0.36762595251429      1.28630208176779
  O   7.24325004072682     -0.99843045240494      2.29847449909523
  C   8.76023613101644     -0.03052230400577      0.72720725609744
  N   9.77852896966829     -0.16270220588775      1.45811244119687
  C   8.76406009087450      0.53217445686285     -0.63482078401248
  C   9.18054352316275      1.77974632888768     -0.81065988904685
  N   8.78829808394481      2.65627243246995     -1.83709424134433
  C   7.49945908685655      2.79770240826574     -2.30183097867280
  O   7.02968905158750      3.82651246632573     -2.67592119854759
  O   6.82463950467042      1.59905815845681     -2.39775876764824
  H   5.51091882452679      2.03442330900589      0.37082051996769
  H   3.58875584809526     -0.88644410033145     -0.85011981029933
  H   9.49521573845448     -0.51478339878366      2.37774530352070
  H   8.15308798331874      0.03705484226072     -1.37738204668357
  H   9.77549516759274      2.25703737721064     -0.04024499958239
  H   9.26416608624110      3.54664032524260     -1.84894551725083
