23
Coordinates from ORCA-job 14676optt
  Br  1.33980059417594      0.12050603899554     -1.39744168226650
  C   2.89802377013331      0.01102439580057     -0.35288537431566
  C   3.53641545279273      1.12722286800458     -0.00853347994559
  N   3.23817105642594      2.46894468852248     -0.11533949000481
  C   4.37340353950422      3.15903881130429      0.23443963610930
  N   5.35225504734415      2.40543432096334      0.57240566043897
  N   4.85025287565896      1.11248868635727      0.47454891446236
  C   5.61760297457150      0.00319169163172      0.14862690240236
  Br  7.47007806518074      0.22524352084980      0.22037774316890
  C   5.00596855715524     -1.15353442505866     -0.19608134628364
  C   5.70130991073056     -2.38910124251235     -0.43973542194154
  C   5.05508910232235     -3.56181875511185     -0.37801023896068
  C   3.65937019738889     -3.64686644850935      0.04069049036347
  N   3.02466817482817     -4.72061981417979      0.28491008710271
  C   2.90526067667090     -2.35343855659357      0.24352871027695
  N   1.71442313164179     -2.27857510334907      0.66158227010423
  N   3.58442095845873     -1.21349331831880     -0.17552616322970
  H   2.38320243798955      2.83305713360741     -0.49890787524473
  H   4.42373137093864      4.23524160295755      0.23878026368392
  H   6.76547280274280     -2.34753185260692     -0.62404769952244
  H   5.58093806272299     -4.49272429801328     -0.55364898105589
  H   3.60943465767478     -5.53996053099716      0.12483333661340
  H   1.37270658294708     -3.22472941374374      0.82843373804462
