26
Coordinates from ORCA-job 14671optt
  Br  1.05792286590502     -0.37029708986164      0.21641602832389
  C   2.90660592923185     -0.10946250363654      0.33010116030364
  C   3.50373421904465      1.07814585468707      0.23890978875467
  N   4.91730372397731      1.09928616381601      0.28808759093319
  C   5.56162060569409     -0.08095572889944     -0.04376612261204
  N   5.00908396759677     -1.22096025525031      0.02703478548702
  N   3.68889412860550     -1.23396321037389      0.51905132808531
  C   5.34204460148226      2.39762534464896     -0.10563133674500
  O   6.48968134809250      2.68151875817155     -0.30866437286887
  N   4.21325159408732      3.20704500305326     -0.21266488885630
  C   3.15144144867044      2.46634316433980     -0.01824362040303
  N   1.90642870309814      2.94867633709345     -0.03395849694684
  C   1.62408154904919      4.33019266699413     -0.38567086599602
  C   1.87106001387235      4.63428072734646     -1.86484957043254
  C   1.33936897810070      3.53482668385967     -2.79506836340689
  C   0.01425108125529      3.06748392178695     -2.38707407269440
  N   -0.99787602128831      2.69939159020517     -1.99318019792426
  H   6.58156895472823      0.00403389755533     -0.39483640468599
  H   3.24782941775858     -2.11981165690629      0.32584381684835
  H   1.13523649906523      2.30888891898588      0.07040300587927
  H   2.24493552878239      4.98293562192759      0.22761966884825
  H   0.57925787315622      4.50591523707706     -0.13429156605963
  H   2.94021513699793      4.73920168812574     -2.04390492596814
  H   1.39372586835265      5.58602470246446     -2.10108537363351
  H   2.00328410820742      2.66816229685512     -2.77329838241870
  H   1.29404787647619      3.88347186593438     -3.82627861181141
