21
Coordinates from ORCA-job 14679optt
  Br  1.20632305331084     -0.00022322111053     -0.79834656042143
  C   2.95023975537703     -0.09091592696956     -0.11625608241808
  C   3.66855294206892      1.03193550236435      0.00102109888076
  N   3.33782083389313      2.36456379523401     -0.09308889514190
  C   4.49669549586921      3.07865281004538      0.07869421076435
  N   5.52728241285923      2.33661248207797      0.25538801804185
  N   5.03181442677099      1.04607505510913      0.21740133735708
  C   5.84740132917826     -0.06183409272619     -0.01768234775552
  N   7.10144725795444     -0.04344135248140     -0.09956475931565
  C   5.06494338925534     -1.33820174389612     -0.13211870097091
  N   5.74136963609032     -2.41248218076560     -0.22499628918892
  N   5.06275754439085     -3.57412241402742     -0.26345146264509
  C   3.74425074637071     -3.76994936444095      0.04206714165605
  O   3.23368743157411     -4.85575835583549      0.10090752092593
  C   2.97218454287730     -2.48786605941798      0.30730344520573
  O   1.85061388125617     -2.49143510013169      0.72041454543914
  N   3.66087084676501     -1.31616336616599     -0.03598866906725
  H   2.40912850145262      2.71287003653601     -0.26110873630604
  H   4.52723349017675      4.15561209820545      0.06732503562825
  H   7.45366125545365      0.90598365979943      0.01826986335112
  H   5.63572122705507     -4.39791226140281     -0.38118971401948
