22
Coordinates from ORCA-job 14684optt
  Br  1.06225365689998     -0.25186332759886      0.23334639491082
  C   2.93527664437446     -0.13249397200606      0.09456703930433
  C   3.66013611224525     -1.28681342761828      0.07971573613468
  N   3.30825972685006     -2.60448157464017      0.12305817494043
  C   4.48068955266713     -3.31837279575803      0.08232172780055
  N   5.52412540993682     -2.56242458948644      0.01960001089325
  N   5.02567258932308     -1.29835291903045      0.01758423985849
  C   5.84847498945742     -0.12267120466878     -0.03500965478393
  O   7.04656513770606     -0.22354482303391     -0.07290867033816
  C   5.03737082301794      1.06935170746059     -0.03566612366072
  C   3.67099452992745      1.07535080356569      0.03401255036886
  C   2.93837830593847      2.39313224616930      0.04778066616630
  O   2.19317080365085      2.58195079897228     -1.16047250025832
  C   2.89295019486243      3.03270352418857     -2.20884656338562
  O   4.05433447875833      3.30440470919785     -2.19969520156143
  C   4.50921310770676     -4.74529102973711      0.10678308720497
  N   4.47455608405370     -5.88940907128668      0.12835591410582
  H   2.36544166946606     -2.95806996978193      0.17057211346694
  H   5.57963282482863      2.00056587083995     -0.11652235842101
  H   3.64428260350088      3.21049873971273      0.17669665628892
  H   2.19570394160900      2.40997501192964      0.84287111598069
  H   2.23251681321914      3.11785529261012     -3.07914435501585
