22
Coordinates from ORCA-job 14683optt
  Br  1.21055788087833      0.58949950455390     -0.79206831519836
  C   2.95220647355953      0.18813245796416     -0.25890757256887
  C   3.53359537260299     -1.01120296071507     -0.15141824501433
  N   3.13861742424393     -2.35005910871816     -0.28135062678573
  C   4.32009546910516     -3.09605405084357     -0.27503324800765
  N   5.36507694646946     -2.39152307667758     -0.09329361724283
  N   4.91330199885563     -1.09612384461378      0.02781533931590
  C   5.78019646809330     -0.01508995018963      0.07290724635179
  N   7.03577503982450     -0.05062739760372      0.09767120487357
  C   5.07016790029957      1.32458900212756      0.09234221620383
  O   5.62910287757977      2.35491658132120      0.23110207317475
  O   3.70711929363890      1.31585812195140     -0.06879842381464
  C   1.91393518204502     -3.02073959587258     -0.02625917085473
  O   1.78107992705249     -4.16444496245055     -0.36876210956094
  N   0.99431925819107     -2.28770058554552      0.65777993913040
  C   -0.31464664027152     -2.74608271537081      0.85816971595934
  N   -1.23529896149134     -2.11731830442254      1.43963131300097
  H   4.29443301157852     -4.16718170131776     -0.38338578486425
  H   7.37912890910236     -1.01056416269921      0.06956519463590
  H   1.22943382665875     -1.35771320674223      0.97260255438159
  H   -0.47631836137032     -3.73756273689122      0.44643813434334
  H   -0.94287929664615     -1.19800730724426      1.77325218254096
