19
Coordinates from ORCA-job 14689optt
  Br  1.22399514423895     -0.17835846841409     -0.75771523060052
  C   3.05847815366427     -0.45591295116527     -0.51770572307816
  C   3.54790618109374     -1.60834518465501     -0.00079051245581
  N   2.90112447467223     -2.74310031059286      0.48049220217197
  C   3.76039383693056     -3.66705928949884      1.01267904189837
  N   3.68410029434870     -4.78780180384345      1.55425962427681
  N   5.08835719352673     -3.04274487021838      0.82715006006408
  C   4.91135912955328     -1.79823605170103      0.16014222490494
  C   5.88608871100498     -0.82762564579502     -0.06301899737370
  O   5.36578578969791      0.31277787743610     -0.61853298734473
  C   4.00927908887770      0.58671737210147     -0.86665600869041
  O   3.74492054667350      1.65310137271802     -1.33235638035363
  O   7.06818893600874     -0.93886201831210      0.18444963102965
  N   7.68202167407534     -3.14697634972962     -2.39784952817930
  N   7.03278055257569     -3.42674896452291     -1.57425897636502
  C   6.15836017887837     -3.60352442570177      1.18591393612702
  O   7.08697524318315     -4.15185166317099      1.53327341807071
  H   1.89862789344012     -2.85262958458168      0.49000349766378
  H   2.74025697755594     -5.14881904035253      1.64252070823397
