24
Coordinates from ORCA-job 14688optt
  Br  1.08033521106189      0.28916580321668     -0.66699551162626
  C   2.92631394822663      0.14359187423590     -0.30195895456647
  C   3.63711367852262      1.30368493805445     -0.16184750548911
  N   3.25352872393666      2.60992223549819     -0.18820384663552
  C   4.37240685759931      3.37430413317339      0.07711337326590
  N   5.42450658752277      2.64369777314332      0.24573409231436
  N   4.97299346232554      1.36130901458205      0.11358672275963
  S   6.03598896220252      0.04747069464034     -0.16806101792785
  O   7.06457986947303      0.12383739614346      0.81256593510808
  O   6.37691606448432      0.11503260880621     -1.55131132689143
  C   4.90907211829901     -1.20546546005387      0.15902952608930
  C   3.56690564876625     -1.09774250616684     -0.04744785828515
  C   2.70496218775498     -2.30854309371417      0.07406534284294
  C   2.41083611376950     -3.09623081294529     -1.14703338883302
  N   3.23047079913747     -3.64931231360805     -0.07438043179565
  C   4.33533230214186      4.79095995795726      0.14411984528514
  C   4.27610608921022      5.98403350466614      0.19749179727011
  H   2.30859414352283      2.93349105771048     -0.32094922490547
  H   5.38328006233985     -2.10833133108770      0.51660914528957
  H   1.91856095669089     -2.21735967867206      0.81536688469709
  H   2.90526547857063     -2.78517817889668     -2.05947904691190
  H   1.43309340147776     -3.54308713976160     -1.26697926932006
  H   4.20878951807145     -3.63639094312990     -0.34302932884046
  H   4.23904781489196      7.04714046620828      0.24599404710622
