23
Coordinates from ORCA-job 14695optt
  Br  1.14477984997723     -0.01923908920886     -0.59601343881519
  C   3.01840991959646     -0.13474548634393     -0.39366656938390
  C   3.61621279780523     -1.28436421378304      0.12597011237375
  N   2.83907832920071     -2.36122897266644      0.55073283836731
  C   3.00997593667893     -3.73018868081413      0.33987745094330
  N   2.16463248831607     -4.62592288876593      0.58969749738861
  N   4.24941821578887     -4.11297942558591     -0.21875574202118
  C   4.43323492487831     -5.22597507559161     -1.06244099957781
  O   3.63974759499424     -5.92649725379656     -1.59032172267002
  O   5.78241879583647     -5.31974604969607     -1.19796431081040
  N   6.43036338505379     -4.31486937061940     -0.47557948983176
  C   5.50556405195997     -3.63713065115562      0.08508808592826
  C   5.71252748128262     -2.42671845740433      0.91505508658321
  C   5.00527760544504     -1.25988458661494      0.28252113529254
  C   5.69787568859747     -0.13590493706562     -0.14004459614904
  N   5.12476255485234      0.94535830041653     -0.65440833352428
  C   3.80497397235321      0.94503695389771     -0.76473591184356
  H   1.87626705212058     -2.12441461047978      0.74660823818431
  H   1.28017127525988     -4.25419894328050      0.92467170708347
  H   6.78196032455032     -2.24420150797720      0.99503687991301
  H   5.31146757840705     -2.60528813821314      1.91793838743423
  H   6.77817807591690     -0.11028669798703     -0.04094982975591
  H   3.33870210112825      1.83338978273582     -1.17431647510894
