24
Coordinates from ORCA-job 14692optt
  Br  1.09542978658010     -0.36020118299509     -0.36631683734097
  C   2.94569257086011     -0.14082566511856     -0.12640600741229
  C   3.72525568426542     -1.23472808106228     -0.00249166450490
  N   3.41391885711286     -2.57462471090164     -0.05981276108078
  C   4.56227939154909     -3.38329757538552     -0.02883543734602
  N   4.71973085638382     -4.62531674283270     -0.20541047448432
  N   5.60107324616213     -2.51286011132960      0.25180482429881
  C   7.01000531698583     -2.72449886039571      0.04660268085847
  C   7.73139457422199     -1.51018250500267      0.66981746398602
  O   7.27832335588705     -0.24853938409077      0.16698428908897
  C   5.93163637391438     -0.13138298558690      0.12792341481511
  S   5.26797103772580      1.46600037006281     -0.02465810412252
  C   3.47629669172968      1.21580609769261     -0.11264801867443
  N   2.72622417961609      2.23342925156521     -0.18939225100684
  C   5.14231939407251     -1.20129860599790      0.17618055774060
  C   7.51274363935029     -3.96871884319965      0.76644386728102
  O   8.61410171913265     -4.39311655815237      0.57423021342934
  H   2.48884175003205     -2.92285862705997     -0.25281937007451
  H   3.85262444814632     -5.11518781711024     -0.39472267635579
  H   7.26333730618110     -2.80417165377468     -1.01549784862814
  H   8.79243720563257     -1.56627984939410      0.44618170453818
  H   7.57893732438158     -1.52148524018200      1.75271213527536
  H   3.22880739045284      3.11731327440823     -0.18083707028436
  H   6.81961789962364     -4.41097399415649      1.50096737000399
