18
Coordinates from ORCA-job 146optt
  C   -2.51075821632887     -0.16015826205953     -0.10688822151000
  C   -1.38431593518559      0.78658575926301      0.02213593253078
  C   -0.09209423808402      0.06825799234482      0.09620775398662
  C   -2.43094925506299     -1.52228335702692     -0.14666510818861
  C   -1.13878971139936     -2.24064579609994     -0.07178377912795
  C   -0.01227831775343     -1.29386723480015      0.05642969560962
  O   -1.50140994064092      1.98476176232137      0.06214726850487
  O   -1.02162692572296     -3.43878600834234     -0.11268006765541
  O   -3.78618334454482      0.23741012866042     -0.19456465916844
  C   -4.53900391231059     -0.88374930822012     -0.28853772636211
  C   -3.76712714803820     -1.99813477363194     -0.26612323273058
  C   1.24414343327958      0.54414730376600      0.21484182804152
  C   2.01605778306982     -0.57021944327284      0.23686680416181
  O   1.26320998174930     -1.69140054208469      0.14337067592587
  H   -5.60105515104042     -0.72835901262987     -0.36334399996644
  H   -4.09319652431943     -3.02206245793291     -0.32503106181772
  H   1.57022392635275      1.56808427699951      0.27353350830633
  H   3.07815349598016     -0.72558102725386      0.31108438945983
