30
Coordinates from ORCA-job 14703optt
  Br  0.62069789102016     -0.48292852176091     -0.28502445613128
  C   0.52334880973196      1.44729916268381     -0.58941005915869
  C   1.80165654238926      2.01358595833026     -0.79904676007270
  N   2.76987252930526      1.67103861132383      0.06512985020071
  C   2.28918461490689      1.46161091283223      1.42981381890716
  N   2.98538600191592      0.93219199044894      2.32926006182810
  N   1.03765990935769      2.04536876694144      1.70130673964515
  C   0.21593139420489      2.15937372021473      0.72961704670356
  C   -0.98040518126200      3.05236976636963      0.84109884640318
  C   -0.95387982100916      4.19807792723174     -0.20875564811661
  N   -0.23649781021144      5.40484052518116      0.15547244658504
  C   1.21535506649063      5.33004216412552      0.25385651348263
  C   1.91216082757937      5.37240866196689     -1.12138372782987
  C   2.77577590843021      4.15993128899204     -1.40540678572194
  O   1.90368528734147      3.03490236612590     -1.62576275303750
  C   -2.26819497080123      2.25671498872058      0.71743581854512
  O   -2.34081928148411      1.06538128536368      0.73393931058163
  H   3.74780515169699      1.90126539519954     -0.04687592291522
  H   3.85193226018418      0.54813809887055      1.95729613519531
  H   -0.99937927926486      3.50008206284793      1.84210250622320
  H   -1.98800190475778      4.48536445391765     -0.41427898185140
  H   -0.55145053688624      3.80194686587600     -1.14516453100440
  H   -0.62463515568750      5.80554689468896      0.99869131114359
  H   1.55685175251134      4.45062034964049      0.81571477316299
  H   1.53196281708194      6.19517494489371      0.83589137043280
  H   2.54732881858834      6.25739191399272     -1.19606339882195
  H   1.15861972614745      5.45988862997204     -1.90573726271237
  H   3.45693747045984      3.95725911778276     -0.57795481275756
  H   3.35220298537136      4.27717766532734     -2.32145558019570
  H   -3.17909182335086      2.88493403189876      0.63769413128702
