28
Coordinates from ORCA-job 14709optt
  Br  1.01374855336472     -0.46614340197802      0.64734387988412
  C   2.22132211968504      0.59853756925801     -0.33155638712649
  C   2.91496452692905      1.67038184708255      0.18647217670742
  N   3.98139200262162      2.08422573272998     -0.54551283851905
  C   4.30468228571586      1.46409233606585     -1.79614194210941
  N   5.47230693846983      1.38632033458345     -2.26920582123464
  N   3.16809430262089      1.06348067417011     -2.47557343419600
  C   2.17948057943215      0.63808745209411     -1.76736047772045
  C   0.81450871609196      0.62556272411491     -2.44126755831726
  N   0.20295890610267      1.95130050537990     -2.36919190684553
  C   -0.56852994347467      2.37464758857365     -1.23745236206804
  S   -0.06340735712546      4.02399969446422     -0.54364379260945
  O   -1.19659245325265      4.89514137497650     -0.70096442879553
  O   1.21195593635347      4.35531531676750     -1.13329274796942
  C   0.23788357139230      3.91427376801421      1.27795089123418
  C   1.07541409134693      2.70964731005353      1.46055448811285
  C   2.35295067658621      2.69996449489358      1.07309731466110
  H   4.35267429883559      3.00902158415452     -0.38221232754573
  H   6.16220007817016      1.74190279989219     -1.61233495350995
  H   0.13564859376110     -0.10353148820570     -2.00469830142765
  H   0.96170851320659      0.38003241347868     -3.49149027766173
  H   0.78931374213966      2.67829694195135     -2.76024852664797
  H   -0.55458321756781      1.64578244852105     -0.42523486500998
  H   -1.60745545125387      2.59455312274152     -1.49741655654841
  H   -0.73492025603448      3.89187686161802      1.76245110398858
  H   0.73997664979483      4.86639917571363      1.45843038246763
  H   0.52905863759000      1.78536782108172      1.56619375383214
  H   2.86824495849826      3.65346299780893      0.99730551497470
