25
Coordinates from ORCA-job 14705optt
  Br  1.02049972946965     -0.68785621161181      2.28006450772142
  C   0.08402511868115     -0.24687067871357      0.61836400765004
  C   -1.13371608379373     -1.06348376372552      0.39407688654199
  N   -0.99119043682748     -2.35647353877450      0.02049430368440
  C   0.25759194432950     -2.73070460288518     -0.54135993842509
  N   0.60698104641287     -3.92948051457208     -0.74161413869652
  N   1.10722401719389     -1.69864181142225     -0.97461592383149
  C   1.05435399101018     -0.50089861940327     -0.51806599036933
  C   2.02094429447655      0.43206638768653     -1.13209193312377
  C   2.19376277300152      1.75481410475550     -1.25956306427397
  O   1.52330578126358      2.82951695222450     -0.75972148137421
  C   0.49138487718222      2.50789879541752      0.05333983899835
  N   0.50333568977447      2.68668088423950      1.29841709987061
  C   -0.69902383070710      1.98822781687196      1.78829293275664
  C   -0.91458425163284      0.96740358370271      0.67564218191134
  N   -0.55911433745198      1.74846372990003     -0.52664713770479
  C   -2.01022947618703     -0.05526258356486      0.53555301208965
  H   -1.78119435686859     -2.96358141304495     -0.12839036001822
  H   -0.07553216549982     -4.58217847141811     -0.36143397422381
  H   2.75452306320953     -0.12820379899525     -1.69818774882035
  H   3.01628739705212      2.10829212369949     -1.86525504276337
  H   -1.54624127743460      2.67733564603306      1.86291064582226
  H   -0.51158792971874      1.55161727064369      2.76515352878068
  H   -1.31140514661336      2.32861239879205     -0.88867562197384
  H   -3.08240043032193      0.03370631416479      0.45531340977139
