24
Coordinates from ORCA-job 14716optt
  Br  1.90724698703034      0.07449533457251     -1.73571059796595
  C   2.05632993193121      1.66415993067909     -0.60328360033218
  C   3.42809228833698      2.21815132649409     -0.54913969868366
  N   4.39293292947031      1.64535312107897      0.21033479670112
  C   3.98774038325672      0.79047987369847      1.26209466583630
  N   4.77814667507540      0.10769381497196      1.96914845953422
  N   2.61408686484811      0.75604081130924      1.57934440154926
  C   1.71633968752180      1.16592973973770      0.80191401333026
  O   0.41005197329596      1.05391962532114      1.25577233330204
  C   -0.27540764885203      2.13518517896216      0.80317860050856
  N   -0.43730526233598      2.33384189740161     -0.44148321156014
  C   -0.22051308031626      3.75171262592036     -0.45378752988601
  C   -0.87484322253201      4.31661555416482      0.78378767222626
  N   -0.42260215587989      3.21027729203830      1.65784652048247
  C   0.96172439841231      4.09804369040907     -0.96085877505696
  C   1.86111620210054      3.00731751267450     -1.46761691790607
  N   3.31664411115971      3.28761659273393     -1.24123230197461
  H   5.32970178940699      2.02033794853994      0.22256161740390
  H   5.73889744161734      0.19126405314587      1.64253639973376
  H   -1.96515501641388      4.37069046568023      0.72653715461058
  H   -0.45113583889702      5.26622608448974      1.09659251838125
  H   -0.77529019027828      3.06329087665785      2.59180170525073
  H   1.36628508379147      5.09800055132208     -0.87353900083577
  H   1.64691566825012      2.72035609799636     -2.49779922464936
