24
Coordinates from ORCA-job 14714optt
  Br  1.01062088720358     -0.06107432447595     -0.55640834159402
  C   2.84776769786608      0.13495953041295     -0.25079856121057
  C   3.46132815938350      1.32909009561458     -0.21861834262888
  N   4.81769095278202      1.46012110575556      0.11829744522574
  C   5.55949830051696      0.34977114913086      0.56405988639339
  N   6.72135822581125      0.35578833610848      1.06166369156549
  N   4.91078770619396     -0.85831334047752      0.41106030597105
  C   3.59918329205512     -1.09715541364933      0.02983395861786
  N   3.06377658821985     -2.24249868441249     -0.06395134818412
  C   5.52176234090354      2.67524523274058     -0.11633770404175
  C   5.10622370245909      3.87162354324484      0.33496920192358
  N   3.98320898955814      4.11571087505621      1.11729014084144
  C   2.89872718370153      3.53085887009161      0.82510385444670
  C   2.74677788224550      2.62670507208071     -0.36707198520813
  N   2.08763422594800      2.90752192599956     -1.40299369151108
  C   6.72669267783401      2.59409090475326     -0.88366543357923
  C   7.73049250376393      2.54252846133280     -1.53620489880586
  H   7.12938533000462      1.27916030258809      1.13607726796471
  H   5.46526604726807     -1.64182214061150      0.72439615765465
  H   3.71572553643460     -2.99105798028921      0.16166681580284
  H   5.71042880041482      4.73938275798299      0.10637585617831
  H   2.02106161524362      3.70272476221323      1.44643638777686
  H   1.63301514420424      3.81950114231556     -1.32013254227983
  H   8.62158620998394      2.49213781649410     -2.11604812131915
