24
Coordinates from ORCA-job 14713optt
  Br  1.24035690052141      0.08147835725354     -2.51318555414580
  C   2.06499901987284      0.56186666028668     -0.89325696996275
  C   2.92772583990149      1.63469613683475     -0.76258962258107
  N   3.71691961566243      1.64660920590069      0.33387291942193
  C   3.56219566731013      0.56508735265273      1.29509668799539
  N   4.52178152873709      0.12230185735098      1.98829370104534
  N   2.24400455702618      0.21534467922348      1.44941917007032
  C   1.46961415668419      0.27351159204866      0.41604922282132
  N   0.09427599946198      0.42079865643277      0.62440742199638
  C   -0.30519329869504      1.62465314461418      0.30486583606707
  N   -0.91523648115298      2.51939283904930      1.15139655809408
  C   -0.55473020790957      3.82705504944061      0.77376622229337
  C   0.06637186895087      3.73125381560873     -0.42410388873780
  N   0.00785184986642      2.39748758982476     -0.77625077166290
  N   1.02002973013898      4.50952162691446     -1.16081718381276
  C   2.25229758457370      3.82030307235054     -0.82979663011917
  N   2.54118427938648      2.77367118838049     -1.48748351395135
  H   4.20523470453695      2.48205128735819      0.61687942796380
  H   5.39896991073018      0.56500895001866      1.72797687357686
  H   -1.09609930731774      2.24996547490010      2.10518940402362
  H   -0.74180954115168      4.67112991431726      1.41176550805286
  H   0.41782025488603      2.05704682262265     -1.62925830816644
  H   1.01335913977795      5.47377231408617     -0.84998772529226
  H   2.67507622820169      4.07599241252956      0.14975121500996
