24
Coordinates from ORCA-job 14726optt
  Br  0.89537007538934     -0.69260871832184      0.60882954496790
  C   2.71505791286627     -0.35362575948994      0.26358871634148
  C   3.59248709025036     -1.39202514132305      0.09372914912100
  N   3.41471084809027     -2.75913611567328      0.12300107020237
  C   4.61528269753491     -3.42341525595992     -0.11710209674797
  N   4.89619444573648     -4.65760907138260     -0.18639395704490
  N   5.54247219944064     -2.40595386850970     -0.28434218472168
  C   4.96174677321171     -1.15712101564376     -0.16776220445344
  C   5.47488640278782      0.11152937439683     -0.26477378820516
  C   4.58145034051217      1.18427507790164     -0.09809698623697
  C   3.21900277426038      0.94499759760551      0.15959013387753
  S   2.31227594754488      2.41244166979073      0.31425212113785
  C   3.75959721217396      3.33512157328547      0.05257710781727
  O   3.63393450873269      4.68674635382413      0.08763402082133
  C   4.39561744256327      5.41809351922472     -0.78892991536164
  N   4.58927125714722      6.64483417799822     -0.67708336547873
  C   4.86889094975667      2.59126607658205     -0.14642567481564
  H   2.53716000484250     -3.22412671282273      0.27743340548426
  H   4.08477210130945     -5.24659337954796     -0.03752796689000
  H   6.50765209747089     -2.61060619734541     -0.47268238564253
  H   6.52354801506306      0.28864144459334     -0.46182842217627
  H   4.79894825212984      4.83012025660052     -1.61094626161262
  H   4.14039244622238      7.02158659166532      0.15828289449920
  H   5.85527820496275      3.00716752255169     -0.29502295488261
