22
Coordinates from ORCA-job 14727optt
  Br  0.77547267868191     -0.42895161627080     -0.09856217031606
  C   2.63734178220684     -0.18004726280650     -0.02978856162869
  C   3.46012240665931     -1.23398047837749      0.03129082963835
  N   3.18257301102496     -2.58957855744659      0.06244986606872
  C   4.34813233420419     -3.34229510732172      0.11516448282215
  N   4.56133280924536     -4.58314792288224      0.16767449722549
  N   5.37345601179686     -2.39172349233740      0.10542961099275
  C   4.90371857376422     -1.11738412084441      0.06553421355362
  C   5.61253211334455      0.04364658331237      0.04786678287662
  C   7.13159892389668      0.04314277508836      0.05621309589757
  C   7.69242862109525     -0.67902406873069      1.20488554130191
  C   8.12669708571679     -1.29728206554780      2.13150859613680
  C   7.65112516932724     -0.53384990753450     -1.19766272912509
  N   8.02341323327631     -1.00987025028092     -2.17047226738056
  C   4.98352624808775      1.34326320986281      0.00005830923139
  O   5.57346619636123      2.39854344125048     -0.01011371675473
  S   3.18763883141135      1.45790229299147     -0.05223744385033
  H   2.25771606049388     -2.98291338793868      0.04380284413530
  H   3.70714562414668     -5.13014577504025      0.16766135389291
  H   6.34136081704372     -2.66934057747880      0.17308265173034
  H   7.44501731138832      1.09064899913297      0.09603588987298
  H   8.52418415682651     -1.83461271079965      2.96017832367856
