19
Coordinates from ORCA-job 14723optt
  Br  3.83512159495484     -1.22580856764840      1.36579177854768
  C   2.96322962384940     -0.13187096955663      0.14493248598685
  C   3.54847292937186      0.44354900941871     -0.92274659223759
  N   4.89873972014629      0.24822396687047     -1.20601264751683
  C   5.33711506166181      0.86001246912738     -2.24600814341002
  N   4.60229839392957      1.65132551540030     -3.05090119233253
  N   3.26628713419969      1.88753490089946     -2.85036971325793
  C   2.76783496519460      1.30089241868824     -1.82667290233976
  C   1.38086008854451      1.43099214429781     -1.44655940375486
  C   0.93088261935425      0.79789491131090     -0.34049674297204
  O   1.62097636210465      0.03240715318938      0.46607901243835
  N   -0.44320693764655      0.99251269188736     -0.01889467534995
  C   -0.87961358939085      1.76346158948280     -0.93227890103627
  C   -2.22259946000278      2.24716613436209     -1.00504969486913
  N   -3.28188266275555      2.67127645735565     -1.11368548815079
  C   0.21438399745899      2.13960068700821     -1.97875958002067
  O   0.04047387104414      2.82426299518530     -2.93820282047441
  H   6.38002031485607      0.75384086622789     -2.52791937905795
  H   4.99360597312504      2.10472562649307     -3.85724540019217
