23
Coordinates from ORCA-job 14738optt
  Br  1.10963798038344      0.15381849492007      0.02774921035434
  C   2.97128608449977      0.12465830185531      0.06672565378944
  C   3.73040694633681      1.23725225317130      0.03388168281091
  N   5.11681999725463      1.17390452260802      0.05990370214869
  C   5.68395454521476      2.47665322401808      0.16163510478581
  N   6.86240659380393      2.86485142092103      0.35950764501629
  N   4.60737633589859      3.32666042229538      0.01595517302695
  C   3.37784028680988      2.68066659578587     -0.00553007941944
  N   2.21401121441378      3.16125009428742     -0.04573539283254
  C   5.77471300993956     -0.03153908219311      0.02042321354967
  C   5.05740800945721     -1.17794753170875      0.07600836315195
  O   5.65273061504533     -2.41120323470210      0.04995390438626
  C   7.01710126461077     -2.40567399593850      0.10028780382935
  C   7.75575142022424     -1.31151872125703      0.03282355436152
  N   7.17659805199401     -0.00952090184375     -0.06577859137943
  C   3.59908150840021     -1.21174276864865      0.13782906919289
  O   2.97450547219817     -2.24719421085122      0.19571366697013
  H   7.50225358544999      2.09597335560253      0.51814201876884
  H   4.73182951769633      4.31671020572682      0.14832531177010
  H   2.21884923051067      4.17959788518596     -0.06477834373271
  H   7.43021683474590     -3.39391425017824      0.22783817168759
  H   8.83087216871331     -1.35333706917430      0.10506176614577
  H   7.50034932639865      0.50459499011785     -0.88094260838239
