23
Coordinates from ORCA-job 14742optt
  Br  1.12814289013578     -0.17876035951214     -0.98186210354261
  C   2.89839963873940     -0.00310987865418     -0.40244528675188
  C   3.51808054869818      1.12872720897508     -0.03679018110453
  N   3.18029648176553      2.45057231573355      0.04636197632416
  C   4.34972681567701      3.17189427129462      0.52641267970157
  N   4.41853750796725      4.40964896448026      0.74381163817383
  N   5.37869831997585      2.24996709036868      0.69602905369890
  C   4.91911524344100      1.08433428854154      0.38214496959229
  N   5.60228845759210     -0.09885120597283      0.41229623845096
  C   4.94245866031158     -1.14870699852692      0.05699248168947
  N   3.64973206876711     -1.16692573877580     -0.34516229432595
  C   1.91072322237455      2.98947044272042     -0.09741647694085
  C   1.36379131040034      3.66967020541676     -1.10379471869144
  O   0.06759345818894      3.99059205931330     -0.78773394023004
  C   -0.21716254966130      3.50023621102316      0.47022797035015
  N   -1.29706718083205      3.61316324740278      1.10433562008214
  N   0.92546015678450      2.85803730820794      0.88447532536546
  H   3.53999419542607      4.87935187811868      0.53557962333709
  H   5.43002389897506     -2.11712029806702      0.06846682141044
  H   3.21438809782974     -2.03947349369470     -0.60044926011440
  H   1.74471848712060      3.97555481995377     -2.06052256769181
  H   -1.98288844087730      4.14402464151013      0.57883527965260
  H   1.05894871120001      2.53570302014288      1.82720715156445
