25
Coordinates from ORCA-job 14748optt
  Br  0.95129023372794     -0.16506376032910     -0.42345143832708
  C   2.82111766279191     -0.11623220303900     -0.25340892410152
  C   3.54194606836058     -1.24383138296051     -0.13873567063607
  N   3.30357303909809     -2.58095325330347     -0.10025699112995
  C   4.54161330148990     -3.26729394555962      0.02960360900987
  N   4.73487345629102     -4.51287929065682      0.09514969601333
  N   5.56814407797499     -2.30492901681587      0.07522673557549
  C   4.98615265086632     -1.17039234592354     -0.02099841049367
  O   5.60721555423413      0.00784106648124     -0.01882685160238
  C   4.86990188279353      1.16050328810360     -0.12941909468451
  C   5.74800570797663      2.36601980773191     -0.10052004928384
  C   6.66241782817741      2.44716363303175     -1.32119502650540
  C   5.92117463930970      2.86032223062180     -2.56217782238877
  O   4.78975072910170      3.26621925912207     -2.58144876566482
  C   6.67652353654742      2.78601890312297     -3.89314183045324
  O   7.81319091457707      2.42519934351025     -3.96732392580693
  C   3.53313867186394      1.13494432709166     -0.24988680511144
  H   2.39941179530813     -3.01757750002619     -0.15454931560700
  H   3.86339473394093     -5.03370749322796      0.04299755417647
  H   6.36034519102618      2.32587835402864      0.80260384493869
  H   5.11901992941978      3.25313476535699     -0.04793928441056
  H   7.17662935005730      1.50243587591671     -1.51212079869569
  H   7.46005083279641      3.18100358976274     -1.16824696198867
  H   6.07592004895819      3.09875788988290     -4.76569155024019
  H   3.00019816331073      2.06741785807687     -0.35724192258211
