23
Coordinates from ORCA-job 14746optt
  Br  1.16170031011656      0.23332821267066      0.01146488033069
  C   3.01828248274782      0.02345526627192     -0.12939870840563
  C   3.61569668848716     -1.18202491539898     -0.04207767649269
  N   3.23582948677138     -2.46390975992738      0.12462353699010
  C   4.39415320184428     -3.30320438168321      0.10556924723247
  N   4.43778242574280     -4.55797481236110      0.21402975148551
  N   5.51212850959421     -2.47748433539196     -0.06974112658839
  C   5.06019286638386     -1.27013741682199     -0.14589784805113
  N   5.75114951402555     -0.11429077407522     -0.32132919230356
  N   5.16045482885215      1.09818163798025     -0.42790914011248
  C   3.87507438163133      1.15447206180978     -0.33922365233259
  S   7.48918959344499     -0.09503032929678     -0.15393799772475
  O   7.89886830512640      1.18866817375430     -0.59342074686918
  O   7.75099195568068     -0.58617941298792      1.15263432561604
  C   7.96198653251995     -1.31063959616134     -1.37594471018411
  C   8.04586174730441     -0.84888789855249     -2.76238274009395
  O   9.19750507344016     -1.02250275888052     -1.95432604061621
  H   2.28872090216418     -2.78391922448763      0.24018933232248
  H   3.51537237734313     -4.96751517887692      0.33097274683350
  H   3.44525357764798      2.14362048893260     -0.43232313128561
  H   7.73717007915528     -2.32617052059122     -1.07517735822311
  H   7.80090828188656      0.18283080574444     -2.98710986638671
  H   7.91572687808912     -1.58368533166929     -3.54728388514068
