25
Coordinates from ORCA-job 14745optt
  Br  1.13282863774750      0.04936416758387      0.22108700685653
  C   2.98740821737257     -0.02959120403060     -0.03268085438730
  C   3.63025971071051     -1.21390192116680     -0.00458039425248
  N   3.29548873965282     -2.50683633593933      0.17630880968737
  C   4.47936939863044     -3.31317333740383      0.09033506987493
  N   4.54913504498133     -4.56859663660636      0.21967309962097
  N   5.55816245596495     -2.46642981852851     -0.16289995187228
  C   5.06286895120387     -1.26791668709467     -0.21195038854530
  N   5.68278321525925     -0.10325170481273     -0.42684407518565
  N   5.07355122127866      1.10894473029733     -0.44779646964659
  C   3.77912449933952      1.16696031250597     -0.25881548419453
  N   3.08715779304133      2.35250448395065     -0.25296175511087
  C   3.66767870939909      3.48265536043964     -0.40276640328312
  N   4.95508215960199      3.80677702578963     -0.65185658394269
  C   5.17655308585190      5.23000771939607     -0.49221489951467
  C   3.74053912776571      5.72868764604549     -0.66376059096512
  O   2.92908341659816      4.60583553466479     -0.31145108088059
  H   2.36826615268064     -2.84834192487889      0.36606305475042
  H   3.63830032334155     -4.97998139174375      0.40269573125363
  H   6.67801632364708     -0.08780931987252     -0.58531862676390
  H   5.65043210839729      3.07797727373356     -0.58846547058378
  H   5.84539356400387      5.62585849807709     -1.25381342973120
  H   5.57861060455256      5.46534877296321      0.49644251437734
  H   3.52898949209593      5.99430172242232     -1.70063865903063
  H   3.48191704688141      6.55660703420838     -0.00979016853051
