24
Coordinates from ORCA-job 14750optt
  Br  3.37398985234556      0.62402136545687     -2.58608587087566
  C   4.31142870819967      0.44354245305242     -0.94773970616530
  C   4.31403482498048     -0.79394401531222     -0.40302365829653
  N   3.78374274080388     -1.97044580055691     -0.83155878485115
  C   4.05706850677915     -2.99292723494743      0.10753317823941
  N   3.73510479488268     -4.21263720632319      0.05717527937017
  N   4.77959793403736     -2.40944590055542      1.16372212814611
  C   4.92434261283968     -1.16564357192385      0.86907693538727
  S   5.69388050820469      0.00629062977557      1.86206315984222
  C   5.51470428257010      1.44721023022504      0.93271301441033
  C   4.93861375754504      1.58853746667432     -0.30959257458990
  C   5.07587499648940      2.83678747480675     -1.13134688088602
  C   5.34459624144424      4.13765647352746     -0.89073098365476
  C   5.57386486832634      4.80388556245381      0.43208395609767
  N   5.95575459178940      5.98891455568959      0.63361840179537
  C   5.27766786345428      3.72131090990131      1.39344820162358
  C   6.12027683540685      2.68952413020738      1.43221824295823
  H   3.27228876569092     -2.09253939339146     -1.68937594720779
  H   3.21314999087215     -4.43295825223150     -0.78694996382779
  H   4.96307529099858      2.61822930764449     -2.18615304602277
  H   5.43917346893482      4.78398022527431     -1.75930027744905
  H   6.08021787396253      6.48601820399559     -0.25006469301447
  H   4.21580446689018      3.49376027459724      1.45666241610734
  H   7.19174622255194      2.82287211195982      1.31160747286349
