23
Coordinates from ORCA-job 14757optt
  Br  2.07418290133022     -0.26412736900538      1.23533288949298
  C   3.37266851424497      0.59002277657773      0.17231299931675
  C   3.49920589786679      1.93986288803572      0.20825291063570
  N   2.60913849387775      2.76104544891392      0.92372315016938
  C   2.92845029536549      3.56431575057827      2.03509205864453
  N   2.33515141726168      3.57718467818042      3.14746121185921
  N   3.94330678855560      4.49398615234394      1.82210865523375
  C   4.45176527857165      4.75775273955844      0.59135798345758
  C   4.65158857017663      3.94580211898496     -0.47578005493406
  N   5.17909170062378      4.71684722368942     -1.46310752476086
  N   5.32267139792745      5.89569189931913     -1.07073440410728
  O   4.83935594860269      5.97587482284012      0.24978281405448
  N   4.45692098400116      2.56866679215345     -0.56739044989092
  C   5.28693844175734      1.81519068627525     -1.37343155059812
  C   5.17422101626094      0.48551182347699     -1.46303226429297
  C   4.18934748507798     -0.26468702018424     -0.69154339605340
  N   4.01509140993884     -1.53036515227528     -0.70859051628512
  H   1.75906739947775      2.24619289578132      1.11493862897211
  H   1.65092873048693      2.83230565241296      3.23328609388373
  H   4.06938416113377      5.16151112779396      2.56902804742490
  H   6.01673437929819      2.38993826857036     -1.92439764755407
  H   5.84284242161674     -0.05698118183403     -2.11696367027345
  H   4.66294636654562     -1.97354302218746     -1.35670596439486
