23
Coordinates from ORCA-job 14758optt
  Br  0.96060827774600     -1.17456721241629      0.71811293308486
  C   2.70731954064047     -0.68760039024592      0.27331500612328
  C   3.05925705752275      0.61629797886237      0.15659029531871
  N   2.07428994744000      1.55466815473297      0.30668514856581
  C   2.04193156310712      2.75904790442336     -0.08390376274384
  N   3.03795420841331      3.52941536754582     -0.59800885587240
  N   4.35933789419069      3.35022713421307     -0.42829231274831
  C   4.94036662738445      2.24954679363110     -0.18350213639061
  N   4.42302501088837      0.92424601135814     -0.12840122371591
  C   5.28461990697850     -0.15133519675521     -0.35373586598568
  C   6.70149686146000      0.10801558286916     -0.62659950833632
  C   7.25782163961655      1.29612938007227     -0.43114845339572
  C   6.42474946445182      2.41082459184867      0.01044344771190
  N   6.85471723396275      3.48726872831579      0.52171672034077
  N   4.95161967826436     -1.38488458228919     -0.31907585244964
  C   3.65435316114969     -1.77489402507643      0.02215354066821
  N   3.31636125371285     -2.99554121045360      0.10367025140574
  H   1.09702194021516      3.29453670340579     -0.01536143422205
  H   2.81877616790771      4.49966610308710     -0.75886403270411
  H   7.26062909062723     -0.77172140730576     -0.91090486518819
  H   8.32213049778527      1.46129657604997     -0.54594272600833
  H   7.87550532560395      3.48345501399995      0.54926439978388
  H   4.12710765093089     -3.57409799987316     -0.11421071324206
