25
Coordinates from ORCA-job 14767optt
  Br  1.28602530049684     -0.06900308332671     -0.93438909304565
  C   3.08669854667973     -0.03375193529789     -0.36941033423336
  C   3.79581800044339     -1.19189214952756     -0.32200298789104
  N   3.24595388253127     -2.41074297454995     -0.67453569287531
  C   3.64026542305812     -3.65139676957692     -0.15284281111273
  N   2.88167216314968     -4.67135518454434     -0.13366963712243
  N   4.93619107830104     -3.66321250456636      0.33327455379927
  C   5.81585785754177     -2.60845958569337     -0.17039949365811
  C   5.19371465542328     -1.26400909832853      0.04851205149744
  C   5.88048521438777     -0.20402724795750      0.48218355875792
  S   5.25154493677321      1.38814800736259      0.62156583621246
  C   3.59377926430798      1.28627700724353     -0.02162319607234
  N   2.88420476496247      2.33250972932979     -0.12199734754059
  C   5.43538659820698     -4.71309871597540      1.14850678335558
  N   4.88031058835983     -5.80898556969424      1.42971640466649
  C   6.73313838654007     -4.43906709837073      1.74279120420736
  C   7.80013660994336     -4.25912066314126      2.25511540092275
  H   2.28914178227945     -2.38239876016943     -0.99776509086104
  H   1.94340050970103     -4.45910596045209     -0.45618064048893
  H   5.97935164055086     -2.76595149693630     -1.24199413835674
  H   6.77396085601218     -2.67524487497194      0.33262710466790
  H   6.92385890018721     -0.28656894213586      0.76177711588636
  H   3.37090991544990      3.17685148804995      0.16970089571299
  H   3.98305721968162     -5.89586006025792      0.95237710604153
  H   8.74613590503088     -4.11653355651156      2.72166244753024
