19
Coordinates from ORCA-job 14762optt
  Br  0.94613664299634      0.09425867658757     -0.03462412006746
  C   2.82659264966755     -0.02362535098987     -0.05922828013453
  C   3.57636667705832      1.12412660459491     -0.06667495983724
  N   3.02451844807245      2.36320531119011     -0.06179708092984
  C   3.72663111123116      3.59197613198087     -0.06787711348074
  N   3.15671460485261      4.71742018898001     -0.06661083889874
  N   5.12108768442087      3.53079381976762     -0.07507901635612
  C   5.66800596145468      2.39505421504112     -0.07969417445299
  O   7.03829739537236      2.37968185225885     -0.08644479274998
  C   7.78383956226163      1.25917740809541     -0.09096147307989
  O   8.95802785542219      1.27943468448882     -0.09376899235413
  O   7.11392411852538      0.05994559368449     -0.09270222088479
  C   5.76473703582547     -0.00346060772210     -0.08545352055528
  S   5.16357677027154     -1.60009359961628     -0.08666122328908
  C   3.34504689198398     -1.36486223730258     -0.07040084593398
  O   2.72413502960641     -2.38898021881951     -0.07001511844745
  C   5.01244758235857      1.11630816555843     -0.07838421083379
  H   2.01483697351007      2.41377325444350     -0.05409831662592
  H   2.14207700510838      4.64186610777861     -0.06152370108804
