22
Coordinates from ORCA-job 14776optt
  Br  1.21990328079048     -0.24597384963954      0.30253926937954
  C   3.07836551572548      0.05878136987519      0.26464930774183
  C   3.59179276248881      1.30714090520364      0.12663851886203
  N   2.75506007621027      2.39684699164212     -0.03189244154672
  C   3.08725326796258      3.67976230352933     -0.48386756301474
  N   2.42027988687105      4.17481231141746     -1.43387207717922
  N   4.01651219775067      4.42663786068643      0.25831834817343
  C   5.14673073574054      3.96256020898362      0.58920765008101
  C   5.70594187937343      2.63775375866779      0.32180143526105
  C   5.05702544691904      1.47787225366693      0.13037149684772
  C   5.98918113672702      0.27062066663752      0.03801482572267
  O   7.17576468920543      0.38701047423321     -0.13684214940679
  C   5.29187307862083     -0.98927166793799      0.21609288244558
  C   3.94198222514933     -1.08827364354792      0.33007656192805
  C   3.74321203123373     -2.49204760452079      0.45118676761752
  N   4.87937334422066     -3.12836187388859      0.40948553926855
  O   5.86241623586640     -2.19598996550447      0.25812713457291
  H   1.81848445206386      2.15092901285979     -0.32994018861189
  H   2.64636769338733      5.16158371119090     -1.54031060942775
  H   5.80429111987606      4.63731223252109      1.13520390485092
  H   6.78846644794428      2.56956930505610      0.35746366557236
  H   2.82372249587264     -3.04427476113186      0.56154772086196
