22
Coordinates from ORCA-job 14783optt
  Br  8.20233483927567     -0.60187559302428      2.57789054744166
  C   7.32589963060516     -0.67436595185555      0.93459738033574
  C   6.36977832772341     -1.58114254018632      0.57940402054962
  N   6.24503014622227     -2.84887638179317      1.10724995642468
  C   7.29926869034950     -3.82808798195379      1.05519127578202
  N   7.10437593886873     -5.06916379540014      1.12070977029715
  N   8.58467680435533     -3.28295973113024      1.01444977004747
  C   8.97400577034358     -2.60986235702643      0.01743249904927
  C   10.16318430241284     -1.75140519984095      0.13568955657416
  C   10.08731918637393     -0.42884037149507     -0.10610309330885
  N   8.99384066894395      0.25217331871797     -0.63614008210314
  C   7.81629896111694      0.07067982009553     -0.21423329320457
  O   6.80879725624360      0.52435669389167     -1.04777587751120
  C   5.68914701407558     -0.20381168042003     -1.09445666546808
  N   5.47515118584595     -1.26594036048270     -0.43193748008932
  C   11.25602555083636      0.38550502491258      0.12737420414313
  N   12.18423349203938      1.02432439296375      0.33779966390885
  H   5.34254926367560     -3.26079109330905      0.90640047524548
  H   6.12074641473563     -5.31296587383574      1.20187170167386
  H   8.39604436763051     -2.54028574463736     -0.91275341232147
  H   11.07221166933237     -2.16526381329700      0.55006857364419
  H   4.96508051899352      0.20259921910633     -1.78872949111067
