23
Coordinates from ORCA-job 14784optt
  Br  1.11989219680381      0.11116236900814      0.06079586056075
  C   3.00692697861362      0.04236665768135      0.02386103980255
  C   3.64338952718677     -1.13383866676584     -0.04430620478951
  N   2.98319652252741     -2.35469216569171     -0.10119336258385
  C   3.59207574114496     -3.59054230400581     -0.08527127706050
  N   3.02780021699622     -4.72336425327977     -0.14600495625888
  N   4.98126990410503     -3.52428968168844      0.02433670274201
  C   5.76639996857977     -4.75073739486368     -0.06096193556240
  C   6.09898588689135     -5.10020944698875     -1.44266298537481
  C   6.38100188197181     -5.36804634926596     -2.57390771120209
  N   5.67610585059425     -2.39277064445233     -0.04810049483732
  C   5.09584579926647     -1.24870936877557     -0.07802054516008
  C   6.01015647355075     -0.07220259982874     -0.17460118630205
  N   7.24585215192343     -0.15067960900593     -0.40970968645851
  C   5.47836150189461      1.34284388416874      0.01321272064960
  O   6.19155161249830      2.29305882827857      0.09065609467206
  S   3.72273939805973      1.63561488224415      0.10499831610999
  H   1.97526099120861     -2.34542514285284     -0.13498027321254
  H   2.01780187026631     -4.65204237440681     -0.21090223892151
  H   5.18596495938253     -5.54654364907669      0.39983165603072
  H   6.67563566823257     -4.58152871894930      0.51324207949110
  H   6.62942352242802     -5.61174923525064     -3.57931196990052
  H   7.51936137587359     -1.12967501623211     -0.52799964243421
