25
Coordinates from ORCA-job 14792optt
  Br  2.85322293515544      0.03534942319950      1.94894101692390
  C   4.13256247358072      0.94013172735993      0.89862583482472
  C   3.89947729326687      2.16001265982784      0.38990438451592
  N   2.61768862221631      2.76674212043552      0.44608842094853
  C   2.13199377931401      3.61381105135517      1.46223967258922
  N   1.96859678593474      3.42520851571123      2.68936586764967
  N   1.95093626782468      4.86648411424688      0.78881425101019
  C   2.50370361593775      5.84796306375626      1.35678741071055
  C   3.19813046930083      6.81526052725283      0.44343093497428
  N   4.30133233370193      6.42288907213732     -0.04440610229009
  C   4.82393070491014      5.16133965581857      0.37947658297596
  N   5.24939422218512      4.92478025439536      1.55106697168937
  C   5.07221828618082      4.13718404825122     -0.66119751201376
  C   4.87913855519678      2.80948581469531     -0.52987637664938
  C   5.64157240050891      1.89262056579280     -1.37743162011881
  C   6.00565194283716      0.67971739281381     -0.96355328032222
  S   5.53283875883404     -0.03312700377544      0.55406159314210
  H   2.44797602924571      3.23770627194049     -0.43447733725410
  H   2.20003397868823      2.47453695894328      2.96362208501040
  H   2.76002277803877      5.83452309978836      2.41958444926324
  H   2.81321503279288      7.79801746063526      0.18427180005744
  H   5.10151252527487      5.72221212187574      2.17037496679466
  H   5.65761569078055      4.48945225123453     -1.50493828809278
  H   6.01426988768291      2.26435138620059     -2.32469610942003
  H   6.66696463060976      0.05034744610762     -1.54407961691899
