23
Coordinates from ORCA-job 14793optt
  Br  1.15524945199800      0.00203703812900      0.15008244067521
  C   3.02934887931974      0.20915368115442      0.01267628995023
  C   3.62402501582701      1.44709031192979      0.10448818198445
  N   2.82926740281576      2.55490800689749      0.36949676682012
  C   3.18586294718555      3.89593532608217      0.52980432748572
  N   2.69621815584749      4.67290248907380      1.39801045468357
  N   4.02580697735851      4.44987694771451     -0.45255878597608
  C   5.16695094455357      3.98652297697634     -0.70485072503431
  C   5.82736613237229      2.80650317846892     -0.04440660137518
  O   6.98466697485738      2.89769571349018      0.27787718781545
  C   5.06841277787718      1.52447136403578      0.02703821496717
  C   5.84641688122010      0.40353814228313     -0.10074856116628
  C   5.22675921839690     -0.85467197519591     -0.18657334853497
  N   5.79858966268222     -2.05846750968474     -0.33268688469168
  N   4.76938546902572     -2.88579163592630     -0.37251637350083
  C   3.55494713705006     -2.31161829439890     -0.26617353120868
  C   3.80913746663218     -0.95378659965334     -0.14026262966184
  H   1.91812366633972      2.33329744900425      0.74511106088537
  H   2.13172171449713      4.16579917360639      2.07568128217097
  H   5.78631749467121      4.49078111077902     -1.44603231318211
  H   6.92164388816724      0.50762000896975     -0.15531659510919
  H   4.95179188489510     -3.87154670818423     -0.47919794193839
  H   2.64298985640988     -2.88225019555154     -0.28494191605871
