26
Coordinates from ORCA-job 14795optt
  Br  1.58123419924994     -1.56784326177710      0.99698988216522
  C   2.89883318528188     -0.37429717812318      0.37826046183248
  C   2.75443337521226      0.96126400683701      0.51813998974165
  N   1.61445180685455      1.48873899408465      1.18134063590613
  C   0.57187851720140      1.99975410960783      0.36981977623007
  N   0.13179065976770      1.46468916523779     -0.68248696719370
  N   0.04411571379886      3.21809767777197      0.82334250022447
  C   0.10997756799166      4.28761766225819     -0.16881082792570
  C   1.54381149773287      4.77408384974755     -0.36450731279444
  O   2.36907353357806      3.68230147668267     -0.73598589897691
  C   3.45955464102428      3.36992082032355      0.09264165993981
  C   3.75035289304820      1.88523593641150     -0.00781090257597
  C   4.91751781582945      1.50496736072392     -0.56807726729295
  C   5.37894443182606      0.14111236662060     -0.75817262641203
  O   6.45248153159885     -0.17514583160742     -1.19869081867678
  S   4.23528579024336     -1.18050567430649     -0.34620631948451
  H   1.87383982646905      2.11254219131166      1.93191237182576
  H   0.62627950709056      0.60781813266856     -0.91169023067357
  H   0.43289235991131      3.50978597371844      1.70991929023623
  H   -0.52282346761158      5.11954785323472      0.14386285466668
  H   -0.28330596781760      3.88572109652706     -1.10050279275816
  H   1.58745632280590      5.53247918439011     -1.15082339812084
  H   1.91500713121511      5.22795826983377      0.56229052075130
  H   3.23981980419382      3.63301893032254      1.13566071603291
  H   4.34958449140990      3.93259469216918     -0.20507160380665
  H   5.61451283209408      2.25054219533085     -0.93234369286052
