24
Coordinates from ORCA-job 14791optt
  Br  1.08644992192271     -1.48136746485801     -1.02917709328538
  C   2.36948207946200     -0.29601546882292     -0.28065879945694
  C   2.92369879102035      0.67519882465629     -1.06236440475576
  N   2.23276712663414      1.27666985816746     -2.12602459062662
  C   1.25714524597836      2.23808093179630     -1.89782394077706
  N   0.61547725042564      2.89715356136286     -2.76829157464418
  N   0.97945789515817      2.40290197196548     -0.50960011422367
  C   0.57429550687443      3.53169482011073     -0.10612449381686
  C   0.22222915269222      3.78900965809621      1.32396410571022
  N   0.49618673567812      3.06936777376677      2.33515986432985
  C   1.12661502080093      1.85849354415453      2.16093741301818
  C   2.37962407214563      1.58513850491223      2.57926177622976
  C   3.06375144728330      0.63705711925008      1.71764382745428
  N   2.40353385845562     -0.25086885777734      1.05273571084488
  C   4.41348013987159      1.04376362731038      1.25052564539078
  N   5.42998657272448      1.10951780899147      1.98767832117055
  S   4.30420211576260      1.56128014499645     -0.45571457172282
  H   2.49296556684003      1.10031399395969     -3.08322666461664
  H   0.88228857532401      2.65025704011561     -3.71823260548470
  H   0.45872290330114      4.37418939296297     -0.79357410720404
  H   -0.28848806230968      4.73159848017716      1.50965102800969
  H   0.59678852778532      1.12830029996174      1.56071321092433
  H   2.96401106240380      2.28918070335656      3.15489813529749
  H   6.26532849376503      1.41508373138728      1.49064392223466
