23
Coordinates from ORCA-job 14798optt
  Br  3.74737162948585      1.95676895313888     -3.42302801818937
  C   2.64401080575902      0.81038108096170     -4.39343329689301
  C   2.14833468550720     -0.36144326024281     -3.95243497446273
  N   2.69817021784946     -1.09100724302190     -2.88595927570989
  C   3.41014378726016     -2.27664859842015     -3.17281958219385
  N   3.97703333187149     -3.02742201773327     -2.33299275514594
  N   3.34114127015747     -2.63819137308347     -4.53527233567086
  C   4.04397814405226     -2.12207823295946     -5.44957706592234
  C   5.18141963323793     -1.16511226701594     -5.12206568936229
  O   5.96826718299282     -0.78489797715739     -5.93542440152791
  C   3.76415634326963     -2.41295352748946     -6.88448140331132
  C   3.35723102942018     -1.45417904342979     -7.72081818567160
  N   3.20476378414056     -0.13291297602812     -7.26419859816583
  C   2.29063418405783      0.10049513263166     -6.44611450993706
  O   2.35973638876858      1.24249378331526     -5.65738683337405
  C   1.18472631181490     -0.77090400642814     -5.95757717835693
  N   1.13581639002154     -0.97832438415626     -4.70684221458226
  H   2.22481175196480     -1.08301685273657     -1.99418102264385
  H   3.89661313591312     -2.66281233078185     -1.38679655728054
  H   5.24020243816784     -0.87120846441720     -4.05865652646355
  H   3.91903517590506     -3.42037134934784     -7.24688303799091
  H   3.22977488377732     -1.62790881696498     -8.78172791426006
  H   0.45662749460493     -1.20274622863288     -6.63532862288374
