23
Coordinates from ORCA-job 14812optt
  Br  2.47561661384368     -1.42288067976008     -2.50537008958493
  C   3.13417807040512     -0.29144049701734     -1.15403941453408
  C   3.09697330641659      1.05166167262029     -1.18593373688429
  N   2.24348731978602      1.85524879503557     -1.98068244130430
  C   0.90608353962804      1.94182405702472     -1.45250890751410
  N   0.04651929599375      1.02930264345850     -1.48559292203073
  N   0.55427311815985      3.19816424474886     -0.87607476248489
  C   0.88237453351249      3.38736078463287      0.33026860347005
  N   1.69159382104282      2.46940306994482      0.99190314833660
  C   2.38913043933017      2.66326859699914      2.01421552442974
  O   3.46095873466460      1.85715103570480      2.25178308581545
  C   3.75722936610681      1.06130957631230      1.15173621283897
  C   3.87852629095962      1.75143077373716     -0.14557121175014
  N   4.38645502085440      2.88967741305507     -0.37577323809178
  C   3.68615885573844     -0.27652685268682      1.15972865619308
  Br  3.52454470788771     -1.30009231626724      2.72163574759137
  N   3.62542960602680     -0.94512961417881     -0.03695224837117
  H   2.65589627028438      2.78040071177274     -2.05737143889585
  H   0.39694556870522      0.21634694191828     -1.98469033566929
  H   0.59319851326589      4.31415537265015      0.82649637619998
  H   2.31039981321861      3.44636989401019      2.76794368747829
  H   4.82915425523082      3.28181637155432      0.45469446481377
  H   3.82387293893810     -1.93182199526949     -0.07884476005178
