21
Coordinates from ORCA-job 14824optt
  Br  1.85351296187377     -0.70598249431171     -2.13622287771235
  C   2.90595871977225      0.08997582190134     -0.79587247990596
  C   3.62144696251417      1.21724747811875     -1.04916213736320
  N   3.11781764547837      2.16827459884323     -1.94650308969406
  C   1.94715451410856      2.81675178042706     -1.46600788959081
  N   1.22031708169518      3.62723616853643     -2.09437039439747
  N   1.67592595461992      2.46393877841694     -0.11178399087908
  C   0.63665509721871      1.80939081906492      0.13657765096604
  O   0.32245888987702      1.30572467766545      1.35067993247124
  C   1.07499807976352      1.40163333636520      2.49859882395601
  O   0.63566873446456      1.93345634378853      3.46149094546686
  N   2.31579429620418      0.75312840198810      2.52525288622341
  C   3.04430143525421      0.47572696207676      1.38418088525220
  O   4.15641545365664      1.19584829977837      1.28336950002507
  C   4.52397556992936      1.68435593316294      0.00235975032870
  O   5.44187234073731      2.42716602699194     -0.07319669326987
  N   2.59829306359122     -0.30393602739467      0.47274770369207
  H   3.75895874773443      2.74340702993376     -2.47304424733952
  H   1.54670655650436      3.76678484206851     -3.04835453569569
  H   -0.13039163770837      1.53634357506780     -0.58577919517284
  H   2.85315953271059      1.07052764751032      3.32303945263925
