23
Coordinates from ORCA-job 14822optt
  Br  0.76989007571541      0.34300964362294     -0.87772860376966
  C   2.63090699729889      0.25617001584024     -0.70858350908724
  C   3.41663991658331      1.23782425730935     -0.25356754474291
  N   4.83238387101389      1.01191865113050     -0.26533332280142
  C   5.73074390600669      2.03807839166988     -0.55266849420827
  N   6.94966466939446      1.93839682125455     -0.86406716343948
  N   5.18998086278621      3.32138798234153     -0.45834804017410
  C   3.97392289718763      3.68690827317906      0.04275580086099
  O   3.66938091897819      4.83154248612615      0.25889442345696
  C   2.99480141300455      2.54790583817829      0.26759439651076
  N   1.88348522240628      2.76220618126530      0.82148598833949
  C   5.28318700845283     -0.25857623718510      0.16566779432219
  C   6.49796652030622     -0.33049879564631      1.08087303235908
  C   7.66306831959590     -0.89137255004967      0.40281941343637
  C   8.61193985042129     -1.33445483361544     -0.17543426369096
  N   4.67114544466990     -1.32829056117962     -0.10512625341921
  S   3.31895893830893     -1.29343193103041     -1.12262385614542
  H   7.27286866307447      0.98513692853924     -0.99629545436847
  H   5.84465969709676      4.06238526118549     -0.67448604597485
  H   1.81472366529699      3.76079351164828      1.04407704233465
  H   6.22328399145691     -0.97370877590814      1.91757535653208
  H   6.74189482510199      0.65730016385365      1.47169573787183
  H   9.45850232584224     -1.73463072252978     -0.68117643420243
