23
Coordinates from ORCA-job 14826optt
  Br  1.10107353881992      0.12165170260747      1.48812786477334
  C   2.54676582934551      0.57583368230063      0.38500076333592
  C   3.58912262111671      1.35999852984413      0.80458435864588
  N   3.44449562373357      2.32884138166105      1.74704533228681
  C   2.25559428358879      3.09583271229052      1.82602853594948
  N   1.93187095533725      3.63912011226000      2.90536872385114
  N   1.57136084283896      3.15976150438739      0.58910635651907
  C   0.20452109989034      2.98334260635032      0.52201306968881
  O   -0.56250976846329      3.40130628525478      1.35067876381867
  N   -0.28303543255486      2.34012419676652     -0.61994471529150
  C   0.17025029650845      1.43244284042091     -1.57064639049893
  C   1.25325461283287      0.66007219065536     -1.78177666116320
  C   2.51012479688487      0.50913114165297     -1.04254669242815
  N   3.61386621869432      0.49128617781287     -1.73690056600838
  C   4.79861962141770      0.55232111851793     -1.06606857212363
  O   5.86445876561701      0.13624829977537     -1.36442360380542
  O   4.72415242740556      1.37460318329196      0.11945348011309
  H   4.22365707294261      2.63358071009442      2.31171838719412
  H   1.09871656494073      4.21125749239358      2.78998931546233
  H   2.08923997367647      2.90505164910910     -0.23708195922519
  H   -1.27583297733819      2.51618353375278     -0.68196557216824
  H   -0.57580170683537      1.35452980192633     -2.35288124949565
  H   1.25503473960005      0.15547914687359     -2.73887896943034
