28
Coordinates from ORCA-job 14820optt
  Br  1.71643573767208     -0.39857019247964      2.44974007036969
  C   2.91910836275455      0.15579267488593      1.12517006370943
  C   3.39363699442520      1.43472520708366      1.09534445647460
  N   2.96923234553534      2.40332171673400      2.02930929978743
  C   1.88918053749128      3.24524120926341      1.78477316125578
  N   1.30337898299331      3.83537534564392      2.72791865887775
  N   1.58914362812890      3.36989740462389      0.38797939208260
  C   0.90687536515447      2.29270414008998     -0.16456849139198
  N   -0.06602090223551      1.73961777011279      0.41453068957319
  O   1.46654847038301      1.97687666394439     -1.37052007217206
  C   1.43208581386373      0.63167773855762     -1.81507933922476
  C   2.85770459197235      0.17085477646212     -2.10955032194980
  C   3.72974496668567     -0.16247074893704     -0.93388279821296
  N   3.21756453422566     -0.87056659369237      0.17700672062230
  C   4.82673955051644      0.52739525926361     -0.52401861117930
  C   4.33840396949991      1.85460289798928     -0.02490696767642
  N   4.49731662529251      3.06196631272621     -0.34424721393937
  H   3.14615230075775      2.23924329970969      3.00961586321826
  H   0.57290564312405      4.43437968530446      2.35695045115506
  H   2.43582581196859      3.58135604772118     -0.13559532470107
  H   -0.47551249928948      0.98314576890395     -0.12079173556654
  H   0.83104314420660      0.58037950486568     -2.72404654557327
  H   0.96896499625224     -0.00892044774693     -1.06066922586734
  H   2.80118198069945     -0.72273544094079     -2.74318853263926
  H   3.37312839961374      0.93214949042807     -2.69899957549213
  H   2.46618614701315     -1.54285511412792      0.06519710790749
  H   5.33611859241365      0.01328986479796      0.28860619908294
  H   5.14192590888132      3.14912575881285     -1.12707737853025
