20
Coordinates from ORCA-job 14839optt
  Br  1.11301829191938      0.02550682380451     -0.42848457191580
  C   2.95630033322751     -0.00793244993846     -0.24011263209717
  C   3.70180193652280     -1.10776346413631     -0.22632266983989
  N   5.10401786247736     -0.93920176928909     -0.06214573728884
  C   5.45692150338966      0.21703166790965      0.61578833107569
  N   4.72885249863649      1.25246907172467      0.67169726330082
  O   3.53072989213597      1.20492964164829     -0.11359002667567
  C   5.71514477878117     -2.18929576180448      0.02579497534102
  N   4.69757018604557     -3.10767716611480     -0.11600153646622
  C   3.43120876337875     -2.55245306953876     -0.27925407211328
  O   2.40888561569359     -3.15385782046193     -0.44481220508256
  N   6.92065132634879     -2.55166407535915      0.19272882404634
  C   7.99780404950172     -1.71356761360352      0.09750417039602
  N   9.16670930184973     -2.08978922994354      0.54164320067374
  O   9.99844656261110     -1.04552887811206      0.19280493174870
  C   9.25172732759633     -0.14971704965537     -0.42848867749816
  N   8.01192255578674     -0.47679403365376     -0.52746064279156
  H   6.37552083165909      0.23448149336551      1.18307714876925
  H   4.88483654399126     -4.09781954631327     -0.15490127179806
  H   9.73692983844688      0.74564322947189     -0.78546480178439
