20
Coordinates from ORCA-job 14847optt
  Br  1.27884496748799      0.14475918523467      0.81161446718998
  C   3.03344277987635     -0.03117350297615      0.23852960387511
  C   3.68821179907598     -1.16649509423672      0.05805965177657
  N   5.06546003986836     -1.10306806865524     -0.23314716309296
  C   5.67120945885642      0.14255406745364     -0.14762545892344
  N   5.04472251892499      1.23262765084920     -0.00932984240386
  O   3.64400747989585      1.18407983386532      0.02206810272736
  C   5.66444575965976     -2.33961098353914     -0.21295842681497
  O   6.82758141624476     -2.59611286670441     -0.34497510731646
  C   4.52419742855524     -3.31281823451456      0.00872017273438
  N   4.54046801569316     -4.56322910412482      0.00557677385170
  N   3.37620571911314     -2.51763284280850      0.20037087240077
  C   2.09292258745872     -3.02775304401475      0.06567204917351
  N   1.23093836375950     -2.75050105105361     -0.84966245874235
  C   0.17495556567535     -3.52937550010847     -0.45481063941607
  N   0.38919969289503     -4.23527616539470      0.61125276006577
  O   1.67361343061394     -3.89497611523854      0.97336900767850
  H   6.75188042273177      0.16787360954442     -0.18972185411706
  H   5.48884336672020     -4.89356903293451     -0.17406597442386
  H   -0.76415081310658     -3.57330274064310     -0.98193653622264
