20
Coordinates from ORCA-job 14844optt
  Br  3.72696597927649      3.96770599520013     -0.26197474297792
  C   4.75527306719922      2.53528022547897      0.34206494597657
  C   5.63242797589458      2.55674758522398      1.34754838077262
  N   6.35070604760753      1.33479247494254      1.47027557498249
  C   6.72635573867477      0.85458664687969      0.22945827516007
  N   5.93990567118391      0.88302524631262     -0.76833137366539
  O   4.64425006009107      1.38098794744022     -0.36138699618410
  C   8.17605869179203      0.51920123562761      0.01006849615421
  N   8.66051977978872     -0.37916278444195     -0.71755712173328
  N   8.95806904967760      1.42513180047928      0.77333110302920
  C   9.78449536985730      2.15599032411406      0.17070636236479
  S   10.54184325104414      3.52443187697968      1.01368322152045
  C   9.09035388460500      4.33653651359872      1.70367917120635
  O   9.17864308414626      5.14380871644678      2.57055576473002
  C   7.72798359849789      4.03724309626575      1.03020274648879
  O   7.62475870409526      3.86982834656993     -0.13899986416320
  S   6.33535526893176      3.92131000755656      2.19480246400555
  H   7.09685846612768      1.35860805179489      2.15106316619535
  H   7.92102817027129     -0.92731506291666     -1.15725383047963
  H   10.04214814123737      2.04126175644719     -0.88293574338296
