19
Coordinates from ORCA-job 14845optt
  Br  0.88208532323678     -0.33515882738597      0.21656590760138
  C   2.72192367500762     -0.19322201030350      0.36927922814236
  C   3.57473467906330     -1.19447509298974      0.17897046619779
  N   4.96004139360034     -0.92672024180824      0.30557049941547
  C   5.29792250668963      0.40295257932433      0.08411047376632
  N   4.48426565359475      1.36711364134930      0.20790252028130
  O   3.17461245389296      1.02842384010142      0.70010534874420
  C   5.67012574295762     -2.08995867060969     -0.00249216302409
  O   4.74463556609658     -3.06030724545214     -0.27858640639008
  C   3.44397787696293     -2.59148539482667     -0.21187433729150
  O   2.50038969612377     -3.27277839808413     -0.42714546542975
  N   6.87765591520828     -2.41409194844005     -0.01421103220150
  C   7.99872417226558     -1.66605967530263      0.26261527918705
  N   8.99246219054836     -2.24402569493390      0.89453212994520
  S   10.21438780857805     -1.17194453026456      1.02172928605457
  C   9.35429303694553      0.03165750907376      0.19163816894719
  N   8.16856965234586     -0.37004807518910     -0.16264418568374
  H   6.30194774000429      0.62190107096221     -0.25427315484696
  H   9.74224491687766      1.01822716477931     -0.01879256341520
