20
Coordinates from ORCA-job 14849optt
  Br  1.07505598787831      0.23348939944060     -0.08580971019826
  C   2.91337320423562     -0.00432034784936     -0.19900136196689
  C   3.55920943157145     -1.15282519403428     -0.01486699760041
  N   4.96190270831241     -1.12248508962066     -0.11808812363797
  C   5.56656974229263      0.09812492758937     -0.00765807778615
  N   4.96940615527596      1.21290838377036     -0.13994375949525
  O   3.57797490553017      1.12850702964378     -0.50331059781018
  C   5.47093130913968     -2.38041004085101      0.29597358409153
  O   6.63816629625405     -2.61814739661190      0.42596557685662
  N   4.37481168122442     -3.21576241776293      0.51025806031529
  C   3.26864776201558     -2.52605348022838      0.35800391819340
  N   2.01515414447553     -2.99287510483236      0.49705050459690
  C   1.86234787197838     -4.24850969779078      0.80370962903925
  N   0.63240299948791     -4.78373048481201      0.94165166394623
  N   0.51745531639703     -6.08985755900110      1.24897212359779
  C   1.68788101443979     -6.59883112817573      1.36196791844847
  S   3.02444094485462     -5.52023959948403      1.09907181136641
  H   6.62138122366256      0.11886320016292      0.23771274264013
  H   -0.20291863894874     -4.23263840158345      0.81272942622521
  H   1.82780593992260     -7.64120699796901      1.60461166917787
