23
Coordinates from ORCA-job 14850optt
  Br  1.63692561522979     -0.12389979727307     -0.24392191054038
  C   3.01521083556830     -0.83475162794650      0.73490599220015
  C   4.45296591153441     -1.50934120830973      1.53813084632215
  N   5.52529912741052     -2.45766398753107      3.36505337986521
  C   5.57997855195097     -1.99592076345627      2.06616651305056
  N   3.11639912483088     -1.29548345626773      1.93192131416661
  O   4.28031203388110     -0.98601918165984      0.23403799870147
  C   6.79810711528604     -2.05467056688130      1.19963992597070
  O   6.82158480210511     -2.55954861608554      0.11027213171961
  N   7.94938860780650     -1.59023719568883      1.83981221854135
  C   8.93723916462096     -2.61246045017063      1.96995986911283
  C   8.88047881664685     -3.29473971695942      3.31155389920092
  C   10.26562457792500     -3.54612673633398      3.63968316053128
  C   7.79304742397362     -3.50721491968603      4.08391458741111
  C   10.99931978299261     -2.83015926058113      2.77074087202730
  O   10.29420013813310     -2.15928343816280      1.83954289207886
  C   6.38367246752189     -3.07317449807722      4.09356417446486
  H   8.77685672700147     -3.33227896382487      1.16337729648015
  H   8.01237772373696     -4.03698051093499      5.00539280009930
  H   10.64258523737918     -4.09121200631906      4.48879703505961
  H   12.06940201178413     -2.69452830284688      2.72139101991520
  H   5.95426098049275     -3.33843450898314      5.06074367249953
  H   7.75276322218779     -1.13687028601994      2.72432031112161
