19
Coordinates from ORCA-job 14852optt
  Br  1.17712110230406      0.15507583645036      0.75969590460028
  C   2.84262606739688     -0.12214341701826     -0.01052940684866
  C   3.46140085503091     -1.27820078797010     -0.22871325634373
  N   4.84679136140694     -1.22058826820284     -0.53256628008185
  C   5.49242470241271     -0.10154837186216     -0.01687133778510
  N   4.90175257032932      1.00151479551377      0.17123655704122
  O   3.55742550315246      1.00559913212318     -0.33074554429825
  N   5.42632528661870     -2.46472419986763     -0.37425963527908
  C   4.46513690620676     -3.27035916999715     -0.14295175170175
  N   3.21175159584343     -2.64548513177242     -0.05533593700103
  C   2.00821970144807     -3.32347992545204     -0.22295917670219
  O   0.98501445042112     -2.78082576008366     -0.49925557458456
  N   2.08071786505859     -4.73200741835173     -0.02931131873425
  C   3.16929948834723     -5.34762116668232      0.06270516532558
  Br  3.12008810968417     -7.22835026749526      0.30384287510295
  C   4.54202206384697     -4.73302374447872     -0.00410595628714
  N   5.65197044008546     -5.32321147318535      0.04203398367753
  H   6.52747189763484     -0.21262313134685      0.27470025584042
  H   5.53544003277135     -6.33399753032079      0.13539043405961
