20
Coordinates from ORCA-job 14866optt
  Br  1.10208358650774     -0.09274568506023     -0.08796067966890
  C   2.95945956688336      0.04744954523902     -0.06554557767014
  C   3.64187724132985      1.21173977372677      0.04578918568965
  N   5.03562921899917      1.24704444678144      0.00809047354779
  C   5.63942229404374      2.45614683322612     -0.36143505429493
  N   5.04709067512899      3.55014667272393     -0.58227849686875
  O   3.68128576467979      3.60168260194740     -0.36930810366779
  C   3.03601236649705      2.55518162113344      0.23790905275262
  N   1.98982249195327      2.73068415573353      0.89752663037401
  C   5.74930780491374      0.06159717390727      0.02309558794099
  C   5.12718931900760     -1.12696449029751     -0.08204724720258
  C   3.67442960704349     -1.23509936829355     -0.22463771802734
  O   3.12411567881281     -2.29203277137661     -0.42245375197005
  C   7.21040022497464      0.10531958188202      0.32179370614276
  O   7.78540682053865      1.03910202622497      0.80244040999181
  C   7.95087957051212     -1.13755493626402      0.02090691503417
  N   8.55048263941051     -2.08387498100802     -0.21623268557582
  H   6.70584663998971      2.45157342098930     -0.50991793403912
  H   1.74344920568400      3.72035667386015      0.93485571690359
  H   5.68780928308969     -2.05175229507543     -0.04759042939196
