24
Coordinates from ORCA-job 14864optt
  Br  1.03919036605668     -0.10656012420471      0.40544539373539
  C   2.88491543609119      0.03807695240774      0.15687514880708
  C   3.66361477939407     -1.06045906664544      0.12461479159177
  N   3.39821502073685     -2.39880906629625      0.25217054963584
  C   4.57002627161641     -3.14973516278277      0.16504706328811
  N   4.79028004652116     -4.37879412291412      0.23250796069108
  O   5.60137444390660     -2.26197603469215     -0.03438366272973
  C   5.07347079753290     -0.99756177073622     -0.05819128784617
  C   5.68537793311941      0.18009269855278     -0.24111165866558
  N   7.03452625572043      0.35103649461014     -0.52271634544905
  C   7.87516513351246      1.20270190374266      0.20179943492915
  N   7.57604154279351      1.92820524638335      1.19549367447261
  C   9.22015682925676      1.21263279832231     -0.33005352457911
  C   10.32534939711523      1.17665804008890     -0.78576312241027
  N   4.88646354332407      1.30822238970030     -0.21420063725573
  C   3.49516580631329      1.35415828978981     -0.00591271539635
  N   2.80767233726509      2.42612476532396      0.02854779639465
  H   2.48816060594612     -2.78972065584852      0.43064743081470
  H   3.94400869741636     -4.91785817705802      0.37829503692837
  H   7.48382004806334     -0.38934596968774     -1.04060722151616
  H   6.61371620501877      1.79242117134240      1.50156479973618
  H   11.31467588656396      1.15900559409451     -1.17833071852921
  H   5.33360005413806      2.18316512794745     -0.44634632851211
  H   3.37301256257715      3.26131867855962     -0.09839185813547
