23
Coordinates from ORCA-job 14879optt
  Br  0.97700009354452      0.14995287259785      0.47268096949265
  C   2.84265470536641      0.04615979058935      0.20985726695739
  C   3.60230685510196      1.21466733873007      0.24563604639582
  N   3.08231703064987      2.46528164993739      0.49938387848783
  C   3.71520010414869      3.65470315734219      0.11720452107709
  N   3.21063083222311      4.80556928516337      0.14141701561373
  O   4.96600624169002      3.49290435254165     -0.35293330599067
  C   5.73848678024795      2.41260082651956      0.16114804418233
  C   4.99066995526647      1.12084038565085      0.05012717462005
  N   5.63537753501418     -0.00588904203359     -0.18257505445065
  C   4.89053599211424     -1.09704395456940     -0.20207103794367
  C   3.51491025365671     -1.14139429030859     -0.01124438719506
  C   3.08319907820904     -2.56867977992205     -0.10546247996959
  N   1.96618424869468     -3.14131933358897      0.00814723643207
  N   4.25387895800383     -3.27644331794767     -0.36452958319993
  C   5.39512400556993     -2.49517578118777     -0.42452373559053
  O   6.51565462189874     -2.87376809773772     -0.60847325213250
  H   2.10186839286366      2.53263917320838      0.72584681782001
  H   2.23909155370457      4.79607870360890      0.43553673163168
  H   5.99376724112787      2.61296446499928      1.20753507616770
  H   6.65083678179234      2.37598518488237     -0.42687786234332
  H   1.21813807399361     -2.48377500930880      0.20088318706590
  H   4.26016066511756     -4.27985857916665     -0.45971326712829
