26
Coordinates from ORCA-job 14889optt
  Br  1.18101757612128     -0.12385999716632     -0.30645183225912
  C   3.04456788629692      0.00706207983430     -0.18642052081590
  C   3.69701369161035      1.16124969274281      0.08293539271962
  N   3.00836369647915      2.37488669890046      0.30023048155645
  C   2.97878051994035      3.27287589688247     -0.81311596756896
  N   2.07841912461341      3.33739897402871     -1.67642146264407
  O   4.04600262468453      4.11292817710377     -0.85963388157762
  C   5.29940841758844      3.44827910388274     -0.97939474240820
  C   5.71634409968619      2.54191313721118      0.17601536133527
  N   5.09021211214468      1.21746763327774      0.17987863208723
  C   5.92019463524183      0.06630069493846      0.23746832426831
  N   7.15722560901247      0.02452429373902      0.54678040178971
  C   5.20936418156676     -1.13955841573441     -0.12568150822701
  C   3.86039393062478     -1.14504515728650     -0.33040852003740
  O   3.42497369150405     -2.37809583270304     -0.62200138936534
  C   4.52632997477212     -3.18706808242908     -0.60805976536577
  C   5.64244785862002     -2.49002547679727     -0.30700504229292
  H   3.36953321438823      2.85332902988332      1.11885287483274
  H   1.32710945298342      2.69400828607377     -1.43405043608573
  H   6.02924381270383      4.25179211774472     -1.05685394862127
  H   5.31276606591813      2.87241917060646     -1.91058623767116
  H   5.59394788312347      3.05241228220202      1.13568904209865
  H   6.78212371399567      2.38056460905614      0.03487955212055
  H   7.54929506681992      0.90854179255306      0.84704419336161
  H   4.33933044515941     -4.22244240269986     -0.83074264220159
  H   6.64759071440056     -2.86385830584470     -0.21994635902807
