23
Coordinates from ORCA-job 14893optt
  Br  1.24051259476894      0.17509753253530      1.36359247900668
  C   2.91287692121212      0.07922493704328      0.51642304824135
  C   3.53773607915457     -1.07523795502902      0.21528415707551
  N   3.15746426992330     -2.39324836981779      0.39961323299128
  C   1.84053876491598     -2.86139748265159      0.25618588715074
  N   0.95629193683093     -2.46697161880461     -0.54062508569047
  O   1.61010364050559     -3.86535264085918      1.12972206174102
  C   0.29844149299723     -4.40077802138965      1.09734086534883
  C   -0.67956918752831     -3.45491179121090      1.65682908554993
  N   -1.44373656949879     -2.73853794911612      2.11836846074196
  C   4.29813755949349     -3.23108776742465      0.05421400066309
  N   4.35942439837430     -4.48628406464249      0.07242181730241
  N   5.33878521149494     -2.38638178002691     -0.33372442515553
  C   4.91871451280736     -1.16752982780489     -0.25569572892065
  C   5.67467189345322      0.00818334509962     -0.56727337005516
  C   5.16500055312131      1.24050277903408     -0.40108990023951
  S   3.61311099242543      1.63596302982874      0.21710041694575
  H   1.28298937251659     -1.72584042210745     -1.15239982062974
  H   0.32407596286662     -5.29578899356217      1.71452318516243
  H   0.00519149824928     -4.64987378827424      0.07767528254187
  H   3.50550759966966     -4.90860628929665      0.42280865400924
  H   6.67713348219241     -0.12284701537390     -0.95165524828149
  H   5.73859702005378      2.12370415385121     -0.65263905549953
