27
Coordinates from ORCA-job 14895optt
  Br  -0.01601058648716     -0.63831994096733      1.26732830595238
  C   1.63437147045915     -0.52584877871048      0.35900762451912
  C   2.74776513508581     -1.25422245509109      0.77234788931364
  N   2.61806734754035     -2.42196119183033      1.56555794961013
  C   2.08749678255678     -3.54984203628479      0.90470213880617
  N   2.49089165968491     -4.74324475601498      0.95298754799348
  O   1.02606576638243     -3.18885662242887      0.17659730659492
  C   0.71038805102670     -3.88985155993119     -1.01496262643397
  C   -0.24388210873084     -2.98524777002077     -1.76959579513784
  O   0.42044668144401     -1.73079693365893     -1.93657561586516
  C   -0.32146264531885     -0.61258633501862     -1.91160925621685
  O   -1.49891011020623     -0.58389355369933     -2.11658386193166
  C   0.52052267656429      0.62146272500643     -1.57576530670932
  C   1.74792424342106      0.24913374537216     -0.79224876061094
  C   3.02914928719543      0.51273873454727     -1.25841844030877
  C   4.11294249261117     -0.04214070658478     -0.59558672650391
  N   3.96942089963145     -0.96447475848822      0.34811059355614
  H   3.49635827128191     -2.64131981127864      2.01728010357999
  H   3.33397754540378     -4.84865841891288      1.50694498581378
  H   0.23852520421971     -4.84818795486548     -0.79256861181443
  H   1.62610109183530     -4.07215467039410     -1.58036182828820
  H   -1.16078833040924     -2.82193014533718     -1.20282702604488
  H   -0.49645297327559     -3.41042161426933     -2.74154626077349
  H   -0.14125670899925      1.29521381327830     -1.03204239201234
  H   0.80052059107048      1.10979212638102     -2.51035232537888
  H   3.17769238075491      1.12597785818764     -2.13739420203769
  H   5.12913588525751      0.20164101101453     -0.88142540967140
