22
Coordinates from ORCA-job 14903optt
  Br  1.81255490392692     -1.72993872074914      1.80773328909843
  C   2.75020206597041     -0.54649466600683      0.70770789959788
  C   2.34578403583161      0.72721039991892      0.50068481009281
  N   1.23707823941546      1.25662131121462      1.20186782681487
  C   0.09728127139020      1.65243988736981      0.50042048030410
  N   -0.43291086081648      1.08518298473361     -0.48535921292342
  O   -0.47280598008652      2.80098965232199      0.99861090161425
  C   0.18122454996608      4.02436654248071      0.80947140519608
  O   -0.36763638549567      5.03089295451614      1.09924405404916
  N   1.49125079393218      3.81715103426979      0.41824788705266
  C   1.75110959154111      3.32537732153513     -0.71969846228988
  N   2.91386446560729      2.64642690692663     -0.98564618835716
  C   3.15298425584105      1.53154287155579     -0.43865298780640
  O   4.35760335685546      0.99116196163290     -0.82062971111680
  C   4.75226889126871     -0.28784317133590     -0.60014788752170
  N   5.83017049169542     -0.77070364933641     -1.01383415671816
  N   3.86469323556009     -1.06084262004016      0.13253434943551
  H   1.49586109759676      1.92388817166517      1.91710492161371
  H   0.03869601214399      0.20795573965777     -0.69891665908997
  H   1.06520233777972      3.38358061110986     -1.56854385773831
  H   6.36412968715673     -0.09276050743118     -1.54878791742895
  H   4.14839394291947     -2.01320501600925      0.30558921612129
