22
Coordinates from ORCA-job 14902optt
  Br  2.26553609438525     -1.06512220625419     -1.14973602045360
  C   2.92476609465365      0.33429329813076     -0.06411181221114
  C   3.68760094695304      1.35227343614130     -0.65179124075858
  N   3.29449309953075      1.92362023607472     -1.89182816727673
  C   1.99826090183736      2.47149465029944     -1.74733594096567
  N   1.05496162573430      2.51953645080623     -2.57323837673532
  O   1.86821482894341      2.98996505921525     -0.49094305641990
  C   0.63516241201485      2.78318045381128      0.17441999796772
  O   0.69182328056636      3.37953763723109      1.44864062363781
  C   1.13491275852900      2.80908502850914      2.59372241737667
  N   2.04816688935651      1.97380028875772      2.82445197563143
  C   2.87552575503705      1.50989747455958      1.82402121533558
  N   2.51621205301511      0.39766138483827      1.17255785652369
  N   3.95392831858504      2.23037086711867      1.54462333851910
  C   4.34255077853684      2.15830585359395      0.27807909386101
  C   5.35120720381924      3.08786959306130     -0.17187660033123
  N   6.15627549793718      3.80915676219092     -0.55107195423473
  H   3.42645829300756      1.38927013845078     -2.73889306160906
  H   1.27491562810924      2.05856265410983     -3.45049662639870
  H   0.43919273816063      1.71116770740340      0.25716712440047
  H   -0.16492804279325      3.29186791113524     -0.35589548140483
  H   0.58376284408083      3.22820532081527      3.42953469554603
