23
Coordinates from ORCA-job 14908optt
  Br  3.48379052274820     -1.28953063992698     -2.26592925729363
  C   4.19594200654813     -0.43183469200361     -0.76004912163772
  C   4.34649491053808      0.88634412131166     -0.59650270083812
  N   4.88577564122432      1.38045746014172      0.61549057315777
  C   4.47568997442952      0.74424548000153      1.80551776971429
  N   4.25465340221997     -0.49206665711269      1.91271778284230
  S   4.52689126059418     -1.50161725713155      0.58086289106861
  C   5.65239328909667      2.54753530034029      0.70921171001535
  C   5.90676783379239      3.28345353322672     -0.54716566781399
  C   5.13184433818018      3.21608108195372     -1.62040140605975
  S   3.71889550841706      2.16682315563372     -1.65343701877051
  O   2.64601052162239      2.82330596285225     -0.96649480687151
  O   3.55636031131674      1.69885788088705     -2.99419065164262
  N   6.05476355350559      2.89440982280263      1.86092839715560
  C   6.83801877190760      4.07967052491318      2.05126580542549
  C   8.28462620351982      3.95142533508759      1.61117758474056
  O   8.68487883821173      3.13111475750928      0.83722437529396
  H   4.34937668607824      1.40114012287830      2.65718908400112
  H   6.78409933173170      3.91514111063474     -0.55782220683226
  H   5.30824559226468      3.76441408689882     -2.53698040975751
  H   6.84256598003007      4.33615234892789      3.11280136400110
  H   6.44325970062966      4.96586024083577      1.53121902229699
  H   8.96465582139301      4.70961691933794      2.04336688780447
