24
Coordinates from ORCA-job 14914optt
  Br  3.34225590949432     -2.00991020170830      1.44403304609623
  C   3.91463472875384     -0.68604870176868      0.23215813087498
  C   4.80785471877023      0.24732896188642      0.57268543927882
  N   5.28532162501163      1.06036887228189     -0.49203591951693
  C   5.83831716378478      0.25918863857114     -1.50251739832939
  N   5.21517545603016     -0.69400506857021     -2.05074095973142
  S   3.60457388027064     -0.90832374034521     -1.47605535108349
  C   7.34319329854273      0.44529027747195     -1.59855510937497
  O   7.84778513025660      1.53208708444154     -1.48975832323961
  N   8.03550600857017     -0.73803851827257     -1.58895591056234
  C   9.23133090103966     -0.91098574009940     -0.82959703665054
  N   10.22577687000887     -1.58587457554402     -1.21234080098857
  N   9.25449366142785     -0.27903750179957      0.40592103754309
  C   8.18342540069332      0.14254672835938      1.18463804694998
  C   7.00592841108751     -0.48012318931303      1.25792571710116
  C   5.76208559791466      0.17960890876669      1.74177509481165
  N   5.61137865540392      0.66288941426812      2.89698571161632
  H   5.92859661543706      1.78715996125881     -0.19880823633559
  H   7.49394676889809     -1.56890457965943     -1.78602438963633
  H   10.12177822945062     -1.86680968360690     -2.18301427761938
  H   10.18771366375765     -0.06913911429695      0.72327096412538
  H   8.34597452037766      1.07432399556232      1.71624650286564
  H   6.85639707396810     -1.42013858791280      0.73623904752087
  H   4.69855571104987      1.11054636002882      2.98952497428445
