21
Coordinates from ORCA-job 14915optt
  Br  1.33400812539044     -0.08010513432268     -1.22634150629196
  C   2.91721222716159      0.02520063568493     -0.23339116945724
  C   3.57224269249166      1.15758865847472      0.03973838414757
  N   4.93370336128459      1.14558351399825      0.42238653922323
  C   5.74866649758397      0.13257974382583     -0.10390156648951
  N   5.36993987631044     -1.04835231665870     -0.32653965495963
  S   3.77342899608392     -1.47454852924723      0.11817712453355
  N   5.45590131159140      2.44692169750691      0.37890578004821
  C   4.46337895887130      3.19563768114442      0.09749852860857
  N   4.50343317107679      4.55733144494706      0.01689489475535
  C   3.40549136346699      5.36279271862812     -0.26417980559306
  N   3.42069258941671      6.59154310663821     -0.53472499158830
  C   2.05878236422427      4.65746279872150     -0.14296493207543
  O   1.03248023698137      5.26168332103557     -0.18648956208561
  C   2.03356925505451      3.15391034376573      0.10286680964674
  N   1.01116156615832      2.53016856609353      0.47664639530677
  N   3.26465642375201      2.52228423030311     -0.11582237531652
  H   6.76342138213548      0.44966355043087     -0.31937047633441
  H   5.41642952982430      4.97854054137017      0.11330370518499
  H   4.36134705258281      6.98258479866809     -0.57743510723181
  H   0.22705301855708      3.18152862899155      0.54174298596849
