20
Coordinates from ORCA-job 14918optt
  Br  1.07993467956861      0.22354885937168      0.82739164078781
  C   2.87555806675787      0.51173522596265      0.40199990866309
  C   3.47092903575332      1.69542120993756      0.22258800954586
  N   4.85460664636413      1.76056068113413     -0.07520403368665
  C   5.40457833484028      0.77576969863841     -0.93957684935606
  N   4.97705266541575     -0.40564159603219     -0.99660465106641
  S   3.76292417149382     -0.94519401799276      0.04278943698238
  S   5.84462688199800      2.50123996189856      1.03565844417978
  O   5.73999214948034      1.88427669181659      2.31491721142220
  O   7.10961270213858      2.63010743425686      0.39276932046807
  C   5.07081138200708      4.07199434319623      1.16176484831355
  C   3.84224724964209      4.38662141667411      0.76002970719423
  C   3.28899744763688      5.68362734298696      0.92424176455260
  C   2.78444981859410      6.76296469063464      1.04654896393683
  S   2.68901444774000      3.25813538585406     -0.05862808430255
  O   1.45032672610184      3.32485220119540      0.64395645967624
  O   2.76772710807467      3.55432955209021     -1.45453621335553
  H   6.22130077614546      1.10478722322591     -1.57223536202394
  H   5.70167923499672      4.79670443109791      1.66446247165401
  H   2.34063047525044      7.72415926405304      1.16066700641446
