23
Coordinates from ORCA-job 14929optt
  Br  2.36557463572304     -1.88662695956830     -2.01728398486480
  C   2.70494962434581     -0.50222170694430     -0.80765391365836
  C   2.58837063501358      0.80544011304902     -1.09903453676408
  N   2.03927964501736      1.33752721361723     -2.29658307931771
  C   0.60852908772951      1.47495681880622     -2.21049650550017
  N   -0.22310163386276      0.59095622029903     -2.50708792397003
  S   0.00875893521853      3.09538595120430     -1.62201355217286
  C   0.54912566536109      2.87750496879221      0.04498004828669
  N   1.11931999927603      3.78487535727059      0.70661748193827
  C   1.67214656105492      3.46551903021775      1.95644701742328
  N   1.53909983001365      4.13345368310778      3.01526392800082
  N   2.48296755725374      2.29915626834857      2.04923815630044
  C   2.80661041422604      1.43379812821739      1.05578623811378
  O   2.92339928825916      0.16629689764457      1.48779632866611
  C   3.11512039193416     -0.86617407051356      0.54858859368102
  N   3.52547672175623     -1.98855757485999      0.91621370957324
  N   2.87669342473976      1.78605191896603     -0.16947275088742
  H   2.44527820604654      2.26118456676885     -2.41732477276082
  H   0.25537363730906     -0.23518361565071     -2.87603624672347
  H   0.35763422045803      1.87082564565607      0.43073600560689
  H   0.93152538003781      4.93206005549060      2.85302012605511
  H   2.66058990593283      2.01647575309300      3.00310691974647
  H   3.71127786715585     -2.01970466301237      1.91619271322759
