21
Coordinates from ORCA-job 14920optt
  Br  1.29076351633325     -0.04722312758251     -0.18200713783720
  C   3.15528564500253     -0.01327130984223     -0.04763536798092
  C   3.86248365764598     -1.16700032099936      0.01897940970256
  N   3.38823473431584     -2.44084195208212      0.00984229853486
  C   4.32969026016975     -3.46642046974809      0.09435015517208
  N   4.16120268489348     -4.70946191315164      0.11647392655359
  S   5.96017722913095     -2.75761910367455      0.17451671024049
  C   5.29963841665313     -1.13933851887789      0.11014143457751
  C   5.90566570162200      0.05057670964294      0.13405434450535
  O   5.20304663443894      1.19852407282804      0.07578376837033
  C   3.84349395434513      1.25156157446057     -0.01566918448034
  N   3.21576907728215      2.36214482896039     -0.06754227779757
  C   3.78776341019500      3.59245702214140     -0.04423512214310
  N   3.13286501076304      4.71767517294271     -0.08233007430817
  C   4.13850309274324      5.63273300314777     -0.03739527643665
  N   5.33697753951989      5.13959014871303      0.02375168620891
  O   5.11798659348213      3.77630586036713      0.01984661895401
  H   2.39818485234150     -2.63476772872855     -0.04501511209243
  H   3.18374532951729     -4.98662223506087      0.06392507599314
  H   6.96852679697840      0.22594415453679      0.20008801940060
  H   3.97699586262636      6.69905413200705     -0.05092389513704
