21
Coordinates from ORCA-job 14925optt
  Br  4.30212875025034     -0.15892905241818      2.71011257638282
  C   3.85328048165010      0.14720302864982      0.92261042347510
  C   2.86607496497673      0.97755067400296      0.52737006950675
  N   2.00453387436292      1.60933020187073      1.45530530850152
  C   0.74184414814019      0.96311689806406      1.54088698442320
  N   0.53580270482378     -0.15065684799851      2.08628395877994
  S   -0.66089962313910      1.75082573556577      0.80127102724030
  C   0.03680161340622      3.00070917200854     -0.21465751930901
  C   1.08584003961778      2.91352811573296     -1.10959922356873
  S   1.19481911858081      4.41588877976321     -1.96843852841399
  C   -0.12789066356916      5.02191246784206     -1.06627778669446
  N   -0.62865301306928      4.19906717795472     -0.20637499775860
  N   1.91391207160241      1.91385448097984     -1.57064047506166
  C   2.66721387491643      1.12205770232579     -0.90421954385949
  C   3.50965903406973      0.21900378284995     -1.69489222689201
  N   4.41798540523125     -0.55528449106894     -1.25688445924171
  O   4.63965296163056     -0.56239733283615      0.11074628228168
  H   1.91830322298621      2.60078969061037      1.27116540473835
  H   1.37653795654433     -0.49274307357484      2.55060614270390
  H   -0.48708161054952      6.03189289856661     -1.20314572027641
  H   3.36913468753723      0.19927999110921     -2.76922769695747
