23
Coordinates from ORCA-job 14928optt
  Br  1.43158879395265     -2.89886071404164      0.28447802615265
  C   3.20813408025280     -2.34121479369959      0.54512700120339
  C   4.07008210183943     -2.22504065633475     -0.50905565756119
  N   3.76310651478101     -2.73290856702152     -1.77500148505596
  C   4.69817056129132     -3.72152550032301     -2.25733269863460
  N   5.42400360120188     -3.57950825344714     -3.26775712205556
  S   4.70597611389344     -5.34246911299775     -1.46985909095830
  C   4.44050188744077     -4.97125225999223      0.24189955282572
  C   3.35665713809690     -5.34050101017245      0.90879306262307
  S   3.08535659394999     -4.87558562487567      2.61314569842767
  O   3.96217815115261     -5.65286955248803      3.42492565193619
  O   1.67775381451581     -4.90442671095266      2.85144057298991
  N   3.66656916478731     -3.32170774635965      2.75898638511709
  C   3.76651806125787     -2.40905296216692      1.87826398620226
  S   4.89509383151923     -1.08593598811023      2.28710626905657
  C   5.71070311878329     -0.96291465571186      0.78138065222273
  C   5.35104582178022     -1.58398405848994     -0.35617268790921
  H   2.82115388042722     -3.11397472496389     -1.79657381321651
  H   5.23352564544396     -2.68150638210679     -3.71507353140684
  H   5.24207002529071     -4.43818472108895      0.74410302425573
  H   2.51622268471850     -5.85896229999756      0.46463518814047
  H   6.58428128892645     -0.32498918089798      0.81855512348422
  H   5.97230712469657     -1.49262452375974     -1.23701410783954
