26
Coordinates from ORCA-job 14939optt
  Br  2.28287966167245     -1.06866247426447      1.64980923126628
  C   2.83877505258514     -0.58714265979327     -0.06802683403176
  C   2.75568828127490      0.63980637343634     -0.57979534739275
  N   3.19189710461568      0.73613224321847     -1.95802238095353
  C   4.55253110573400      0.38451997815036     -1.79981753937989
  O   4.69292295514757     -0.94701687410922     -1.52039605594976
  C   3.64309505702840     -1.55950791564069     -0.84692559094100
  N   3.50563547356794     -2.80211329147502     -0.81945840371765
  C   5.54025343599927      1.27169567672833     -1.73961837633521
  C   6.84013711810538      1.04604978916873     -1.10868690172162
  C   6.96135831761451      0.81832279282805      0.20127117514516
  C   5.94925998089860      0.66189908236773      1.26054839711797
  C   4.74847957279767      1.17918872184130      1.55389955143077
  C   3.82928171091136      2.17333065281747      0.95728865412735
  C   2.78471749053509      1.92887859909782      0.14227541107775
  C   1.89769412902416      2.96515825736774     -0.28813723169159
  C   1.14166045736242      3.80179405068166     -0.69743944659605
  H   3.10048917069179      1.69189361935778     -2.28395500446370
  H   4.21908501544142     -3.26204761631457     -1.38398490056833
  H   5.30131520275019      2.28003432324002     -2.06070898681491
  H   7.74557573829796      1.12922426616187     -1.70090172615905
  H   7.97037074129766      0.66749929174210      0.57430373140229
  H   6.30863602721321     -0.01121658403703      2.03434524771852
  H   4.34681175784484      0.83117691726372      2.50501108088645
  H   3.91560552359508      3.18584209271395      1.34554690421407
  H   0.46684391799327      4.54726068745083     -1.04542465766981
