22
Coordinates from ORCA-job 14930optt
  Br  2.31349582550255     -0.69601031591211     -2.65675552536306
  C   3.00493718971779      0.07638899998703     -1.09553738782830
  C   3.53509168902269      1.31917753406009     -1.04318973971876
  N   3.35418247154699      2.24235407555256     -2.08991567972277
  C   1.99196245742966      2.68440706723967     -2.15932227116720
  N   1.26882733926057      2.63953262107628     -3.17769666748466
  S   1.28448258434348      3.58448441581922     -0.72549621136487
  C   0.81875074082279      2.48879461716022      0.53679632685786
  N   0.79784729540444      1.22187018003718      0.55075981600746
  C   0.43747096437011      0.58177862713387      1.74291792808039
  O   -0.61613496657272      0.62417092268866      2.29311798088175
  S   1.76135985825490     -0.48190409542558      2.45149891746495
  C   2.98361250704539     -0.04023621377524      1.25419487013068
  N   2.82268568341045     -0.65212816619922      0.03831549292639
  C   3.75875471810839      1.05825119236674      1.37779026110210
  C   4.17213233496771      1.79781144115824      0.19255294121431
  O   4.82085796713318      2.83226459137154      0.20314812184004
  H   3.98583488535993      3.02845012972058     -1.93525275243934
  H   1.79502442197686      2.21399155388741     -3.94571493025580
  H   0.52583150001210      3.08364737219843      1.40900314525320
  H   2.21616542716137     -1.45763111345562     -0.01088204530737
  H   3.86082710572134      1.54853456331003      2.33566740889300
