23
Coordinates from ORCA-job 14932optt
  Br  1.12103920638491     -0.10545251747028      0.57755747042020
  C   2.98985237082696     -0.06282669080500      0.38098405559585
  C   3.68734514608160     -1.19109247632617      0.13043076437159
  N   3.08667424960069     -2.41916636965747      0.00535868031739
  C   3.67743429511101     -3.64009082117102     -0.26606180586934
  N   3.09981708997062     -4.75374895340840     -0.38418531962907
  S   5.43327923577912     -3.64657759859657     -0.47100385271678
  N   5.89977682045508     -2.08483537926491     -0.26514466117533
  C   5.14279973553406     -1.09168123955245     -0.01426284870945
  C   5.78656252446670      0.26671571686762      0.14285839529762
  N   7.03583542804194      0.44292545773926      0.05318422940229
  N   4.96679474648146      1.36284397516431      0.39464965355433
  C   3.70554511592855      1.20661457025871      0.49614293325870
  O   2.90846787819395      2.24619354610130      0.72593103627313
  C   3.55823509107746      3.51669486050810      0.84274582709627
  C   2.53193511559798      4.53556309940962      1.01661902816091
  C   1.71320509374510      5.39532863080096      1.15872332073244
  H   2.07916984279850     -2.43173312571656      0.11357257168229
  H   2.09012965583555     -4.70622541334674     -0.25960184431122
  H   7.49627370789992     -0.44856859185706     -0.13328580205037
  H   4.15276717924380      3.70395074644626     -0.05185985712681
  H   4.24139124989561      3.49449653363360      1.69287187016875
  H   0.97966922104941      6.15567204024289      1.28477615525661
