27
Coordinates from ORCA-job 14945optt
  Br  4.18810623439753      1.64571993514929     -1.15211242103437
  C   4.71575175169258     -0.06492108098417     -0.59554491423791
  C   5.61868840062081     -0.29250604014443      0.37434210343796
  N   5.96680577394841     -1.58543519159372      0.71748621248526
  C   5.74718111780284     -2.46407999692193     -0.16488141093870
  O   4.87491780088239     -2.38771005133520     -1.15724126410792
  C   4.12303001203121     -1.20398420206027     -1.29838441842374
  N   3.11257400310136     -1.18206696149498     -2.03580010196920
  O   6.55078165726934     -3.54827939359849     -0.24237290847783
  C   7.87202386005516     -3.06812744580916     -0.29254778734359
  N   8.07341491114799     -2.03441942981861     -0.94335158681425
  C   9.18919178366651     -1.13652652868710     -0.78651294475678
  C   8.60772502906494      0.23871755598198     -0.39947039142193
  C   7.98626238425196      0.31761152822442      1.01215946127558
  C   6.49008124314729      0.73775370221292      1.06335825611060
  C   6.05458420204772      0.89118168519486      2.45255975608362
  C   5.70197147646350      1.00088267746198      3.59127090368767
  H   2.92957327361698     -2.09273472076832     -2.45197204460298
  H   8.54212330219422     -3.66140059167166      0.32736847054680
  H   9.69965407869878     -1.03993134068599     -1.74582629566393
  H   9.91263741265195     -1.48312991128728     -0.03888449484963
  H   9.40729933628632      0.97583976527756     -0.48761484478610
  H   7.86240165031684      0.49095854529857     -1.15865942136234
  H   8.52848351701989      1.04470251624904      1.61643431014606
  H   8.07097962344580     -0.64186623968655      1.52352506409986
  H   6.36593255390500      1.69446830594272      0.55325964005454
  H   5.38082361027258      1.10028290955451      4.60041307286324
