24
Coordinates from ORCA-job 14940optt
  Br  6.09694684534605     -3.01027071510946      2.08606420614563
  C   5.62929713686564     -1.80955191202766      0.70245720704864
  C   6.07977837550151     -0.42057835847000      0.71663651588669
  N   5.28758445760276      0.44897692620904     -0.05601031945199
  C   5.77956752538842      1.26979323728639     -1.03260477492480
  O   5.07901284644460      1.98837120204178     -1.70408503852650
  C   4.86255701900441     -2.28945862315003     -0.25515951472623
  N   4.04895538807169     -2.69357300990106     -1.05595422193550
  C   7.28092778543495      1.31719468654164     -1.32117992496780
  N   8.09450751827506      0.38679708718190     -1.55465348565416
  C   7.85432727976433     -0.97583800723006     -1.57028136392052
  N   8.29202638098280     -1.83729770911960     -0.74988557256818
  C   8.90320928511801     -1.52372190486715      0.44592010833056
  C   8.42068744085569     -0.73971075294097      1.43773514721018
  C   9.25758753963675     -0.56534486641589      2.63424998218212
  O   8.99240754771088      0.19144009008351      3.53159088166304
  C   7.20769293817683      0.04935077793379      1.26947432805162
  H   4.27663012009935      0.39004489016122     -0.02272663969245
  H   4.39809224698135     -3.15592223807121     -1.89535732018941
  H   7.62680534017864      2.34267762137621     -1.44567001379042
  H   7.33266662087054     -1.32764173117734     -2.46079310721504
  H   9.83498112528506     -2.05760185022191      0.61654543197248
  H   10.18095207008298     -1.17509033443751      2.65474851490714
  H   7.29679916632159      1.12095549432436      1.41593897416490
