22
Coordinates from ORCA-job 14944optt
  Br  1.11261682863757     -0.49121428215710     -0.29169412495085
  C   2.96484847961369     -0.29190795930359     -0.40620727411898
  C   3.79583924617957     -0.60582204613575      0.60660838622327
  N   5.16098371426125     -0.46821554576415      0.49032849534396
  C   5.60936785610299     -0.39573149137467     -0.68472048749168
  O   4.93481318353261     -0.12205358722780     -1.78517965929985
  C   3.54159903994411      0.13740646096625     -1.67714542710327
  N   2.92727894802659      0.61679500799843     -2.65367595361322
  O   6.88982908420388     -0.68305715534837     -0.95485176779125
  C   7.58449043202736     -1.32403771069222      0.06169713988879
  C   7.16884457101121     -2.36149949659283      0.78463306624400
  C   5.96394246727630     -3.21370183876485      0.64307447538242
  C   4.74316644541327     -3.20266478988621      1.18017741233248
  C   3.96778771967333     -2.29904673324723      2.08546037414312
  N   3.42571984424817     -1.18253133719495      1.82192191990470
  C   8.88637409784886     -0.75176536400096      0.26138413357747
  N   9.93127830705203     -0.30713480844302      0.41942927709217
  H   3.54103808697503      0.79062371017569     -3.44623940679983
  H   7.89822678836788     -2.72296379699518      1.50342950717905
  H   6.19109164244501     -4.10311472395688      0.05709643600799
  H   4.15015535107993     -4.09006593992006      0.96402305230845
  H   3.71470786607931     -2.74529657213454      3.04745042554105
