22
Coordinates from ORCA-job 14948optt
  Br  4.21147843680233     -0.53721998548439      3.07592886269309
  C   4.74163162589322     -0.59127381252546      1.28790004636198
  C   5.89170327822637     -0.03435173272963      0.85714452822668
  N   6.18294882656153     -0.09673041044577     -0.49290388220953
  C   5.78872772896942     -1.19252200618830     -1.21198140758215
  O   4.60644602431074     -1.69589949493676     -0.85538766938201
  C   3.93236316086640     -1.34298790991197      0.33821967110652
  O   2.83695219020657     -1.76608284201667      0.48492761329053
  N   6.43288112723288     -1.72892027605343     -2.17031413464673
  C   7.69718501224594     -1.28045521173272     -2.51016800717384
  O   8.11746801750832     -1.16103994156575     -3.60902769745328
  O   8.54680394396016     -0.92010176763216     -1.43610908646344
  C   8.56865298988660     -1.68133364623788     -0.30187845889042
  C   8.47373682916196     -1.19075885752371      0.92780851012047
  C   8.23867027795216      0.21621415190552      1.39708970418674
  N   9.11502754086571      1.02834022655451      1.79317795192092
  N   6.87630860674306      0.57398244440891      1.58388730488657
  H   7.04127095095204      0.34879241976940     -0.78555564020832
  H   8.71760049571016     -2.74259679009538     -0.46757235890339
  H   8.56812167112502     -1.90502899876364      1.73818181693569
  H   10.04825714923151      0.63559958320372      1.69291172396009
  H   6.64276411558776      1.06737485800158      2.43372060922383
