22
Coordinates from ORCA-job 14943optt
  Br  3.77324954817012      1.25750417186175      1.15512178881343
  C   4.72565874012895     -0.36654909088796      1.42454387872574
  C   6.07650056356470     -0.33074894507520      1.19387855029457
  N   6.37936173317040      0.20197545196622     -0.04025763664433
  C   5.86971942295536     -0.77668343870259     -0.98069858426001
  O   4.59829310718065     -1.18119666874734     -0.76787779157978
  C   4.15598202626347     -1.45164293752801      0.59932261882208
  N   3.40113028117778     -2.40101065599525      0.83487724807740
  N   6.56394177895063     -1.36372438283123     -1.87083753153305
  C   7.93031492310401     -1.46884041467200     -1.57495959192712
  C   8.79809248332517     -0.50826351286361     -1.27474021164872
  O   9.77744118994539     -0.75515727238320     -0.30067155392314
  C   9.13989293673008     -0.63641726960161      0.91980739851570
  N   9.40100820314783      0.20482128939392      1.80228020517282
  C   8.09414141134238     -1.71508756686265      1.24112954967633
  O   8.38905066143933     -2.86007847913565      1.25102069882811
  O   6.83910018453839     -1.34400165169614      1.69543092389113
  H   7.30643388204697      0.53016252579793     -0.25148542643305
  H   3.19763739909201     -2.94654480032009     -0.00288228441130
  H   8.21853414401530     -2.49369419417838     -1.35309046079028
  H   8.70435124863412      0.53648708808012     -1.55466775059091
  H   10.17216413107685      0.81569075438100      1.52875596292438
