22
Coordinates from ORCA-job 14942optt
  Br  6.41278515474970     -2.54155609666441      2.30338074134829
  C   5.80303984071609     -0.79043632521652      2.51977965615280
  C   6.07818802107551      0.20857654692320      1.64743599672643
  N   5.37828943852730      1.40117554065162      1.68217937279173
  C   4.45296589132235      1.49389547426046      2.55049701273699
  O   4.22465936452364      0.63878581196294      3.55286362702294
  C   5.12135806946250     -0.39892198303360      3.75836523958763
  N   5.27865317150265     -0.76580745691996      4.94795098383838
  C   6.37710070517567     -1.47571579889856      5.47317107110709
  O   6.30834806485941     -2.48829060634724      6.09584333069972
  C   7.64202605141344     -0.71294941030647      5.10224909941172
  N   8.49568263434388     -1.35285873315199      4.43193291180301
  C   9.20318073243799     -0.86986173211658      3.33404890981264
  C   8.57563286317766      0.06755172399080      2.60570858833291
  N   8.47811139801703      0.23796470894275      1.22238928426080
  C   7.22368328997580      0.17383345731336      0.63274319505178
  O   7.04338829154352      0.14396576150648     -0.55208772514133
  H   3.74772303820270      2.31514629701965      2.55234913599555
  H   7.59367584029788      0.38084313424330      5.15556793988691
  H   9.99696991722230     -1.50472628050665      2.96515307708440
  H   7.80699023295335      0.61868293723630      3.12101200203826
  H   9.25554798849956      0.07270302911111      0.59746654945131
