22
Coordinates from ORCA-job 14953optt
  Br  1.72181390819223      0.10956419890158     -1.06155740749120
  C   3.37857287456446      0.07373883378718     -0.20394162334947
  C   3.94706553178014     -1.13408671620425      0.02995595075409
  N   3.46183861479770     -2.43528928450987     -0.11409707628451
  C   4.45019243382892     -3.16432539249563      0.21902105056137
  O   5.60804460221717     -2.51705055555812      0.56534518473345
  C   5.29875933972494     -1.20158777487565      0.43121674897738
  C   6.10043701184427     -0.12105670123394      0.52401192878070
  C   5.50515338203540      1.15328143179675      0.30068990697961
  C   6.23346342077461      2.34669192394810      0.32410124760452
  C   7.67742372121239      2.39529512929450      0.55768966077252
  O   8.31912756380567      3.41981852995934      0.54546839672757
  C   5.57152036737887      3.57210511265905      0.11362193141347
  C   4.22405518491809      3.65740659107900      0.02001999107619
  C   3.40009117917734      2.50131619241927      0.17343816867684
  O   2.21934859926565      2.48339417875419      0.40214391767243
  N   4.12213283710270      1.21567415488491      0.05022072162196
  H   4.48716252206056     -4.24140052236588      0.26524690720422
  H   7.15013937915813     -0.20975245682818      0.74413630978359
  H   8.19609461368373      1.44191340361889      0.74907992225781
  H   6.19028739874308      4.46070721797154      0.08325271400672
  H   3.69927551373388      4.59864250499721     -0.04906455247926
