20
Coordinates from ORCA-job 14951optt
  Br  0.66698543575508     -0.66674691625816      0.62442723614688
  C   2.50245452192552     -0.45637589214653      0.35576958130104
  C   3.07558859810936      0.78012809070441      0.12953118539958
  N   2.48115624225878      2.04193258679639      0.06155822521782
  C   3.44850302900153      2.84496120060339     -0.17277267182623
  O   4.68463109771168      2.30253778421912     -0.28239802398309
  C   4.44852828531446      0.96979937501196     -0.08679293621908
  C   5.30492384571660     -0.09344418601886     -0.08545942101596
  N   6.64938249356741     -0.27253975516235     -0.27043904686337
  C   6.89595838230844     -1.63695744117862     -0.15382406854567
  C   5.71074900933600     -2.25158427761504      0.10211277773685
  N   6.00944422760845     -3.54802003218972      0.19935605934148
  N   7.33286244817551     -3.70823047451332      0.00714350682174
  N   7.88167266140403     -2.54713659874447     -0.20963966784484
  N   4.70504551185129     -1.31854713561823      0.15036306522394
  C   3.32849808473890     -1.61900365179153      0.38046338366388
  O   3.05355037126683     -2.79355715108370      0.55766193057350
  H   3.39272372247202      3.91554212795195     -0.29327128626631
  H   7.30400293041184      0.46486127218741     -0.46527465597554
  H   5.40133910106624     -4.33261892515410      0.37848482711341
