22
Coordinates from ORCA-job 14958optt
  Br  0.60087504310483      0.83834869120782      0.57642691472779
  C   2.41597525219672      0.51135971904405      0.31514475227152
  C   2.92751250734477     -0.74653982962198      0.16665379639706
  N   2.31655577225179     -2.00206434879073      0.16519252428120
  C   3.27802783510019     -2.81833694442854     -0.01835133087834
  O   4.52649253858579     -2.28678107330580     -0.14991258554635
  C   4.32047211078786     -0.94257760903647     -0.03299323347210
  C   5.22741234114346      0.05484233199806     -0.09195095598756
  N   4.69298535651934      1.31086329631829      0.05940957390476
  C   5.29224319397261      2.52720408479175      0.05368650816391
  C   4.33123041244803      3.47134364318620      0.24042768239848
  C   4.73193067757143      4.90655124088469      0.26408392474826
  N   6.17898429067403      5.03373577997924      0.07062592794918
  C   6.94114019984383      4.05787642887616     -0.08958415164546
  O   6.62079888290580      2.70939556225007     -0.12121630509942
  N   3.11076260746807      2.89704961902394      0.36998762525521
  C   3.32053482326028      1.59747205419476      0.26218444472928
  H   3.22001811539793     -3.89354543185948     -0.08288686945142
  H   6.29112161674317     -0.03722912977149     -0.24084030800872
  H   4.47297160822962      5.38652360795619      1.21026368918933
  H   4.23277736102076      5.47908104388008     -0.52069122985388
  H   8.00917745342965      4.17342726322317     -0.22966039407274
