25
Coordinates from ORCA-job 14965optt
  Br  1.09605955918835      0.33587675738639     -0.21807443791575
  C   2.92904424156908      0.06367969187704     -0.05620003929954
  C   3.53165209598971     -1.11420947771138     -0.19136652437212
  N   3.19104988656988     -2.42557443429396     -0.44116036425551
  C   4.33123530480818     -3.20819800791408     -0.44829970633856
  O   5.41233634550120     -2.36639516015953     -0.17139160225408
  C   4.95897021365185     -1.10340178855073     -0.01635817987450
  N   5.69317934574577     -0.10524030074948      0.23872709221956
  C   5.04324728955138      1.12491129120965      0.35026114685106
  N   5.58203621998977      2.23440331921345      0.56378921389594
  O   3.64617285795694      1.16305566654536      0.21746431634958
  N   4.39923863095880     -4.43310153805396     -0.65360403958551
  C   5.68795705214265     -5.10831551045482     -0.62878263219941
  C   5.51516689110165     -6.52360075344993     -0.09738243737772
  C   4.55551041617775     -7.35628710395959     -0.95303541462902
  C   5.05186892496698     -7.51059647473848     -2.32032392458632
  N   5.46912587795023     -7.60868910641914     -3.38330660715452
  H   2.28624386000938     -2.78844171819606     -0.68533958627855
  H   6.58612323177431      2.10817540130134      0.64924981420892
  H   6.42065273493003     -4.57117647115303     -0.02262432308352
  H   6.07501126758423     -5.15225228175479     -1.65157032847737
  H   5.11902655887506     -6.48388473829694      0.91849351786616
  H   6.49034429961857     -7.01120304353961     -0.05664648804230
  H   3.58228763760269     -6.86630212692131     -0.99935725295650
  H   4.41545925578548     -8.34923209121637     -0.52516121271042
