24
Coordinates from ORCA-job 14969optt
  Br  1.69918083614308      0.38277201210268     -0.32415315067783
  C   3.52631124895255     -0.00325800079964     -0.22309035129959
  C   4.00421365176630     -1.26588838063970     -0.16631237897893
  N   3.37278869624226     -2.47736762962320     -0.16368785161318
  C   4.29864220174923     -3.52586758090741     -0.07909989961564
  O   4.01019769139173     -4.70159261179417     -0.05394470587928
  C   5.61597352668540     -2.87825159456835     -0.03288341304900
  C   5.42716634939825     -1.51519244890024     -0.08546212200633
  C   6.32137183002749     -0.40124386530821     -0.07283101923233
  C   7.76727426636048     -0.60764176932959      0.00332069252090
  C   8.46857844718577     -1.75535672435596      0.06873672901090
  C   8.07254151276055     -3.15306609700328      0.08826769288524
  C   6.82311539076237     -3.64490736595916      0.04361051246969
  C   5.75582649395094      0.85687633082687     -0.13284633213795
  N   4.39041706043924      1.03625970561992     -0.20504553392424
  C   6.47380968897323      2.13632415723154     -0.12684244132549
  O   5.88445142124989      3.19209285908166     -0.17553305193020
  H   2.37763329371648     -2.62588783171288     -0.20727886887908
  H   8.36905584041346      0.29056473914056      0.00770039931247
  H   9.54311397095291     -1.61209414661870      0.11704089172871
  H   8.89014979743710     -3.85989238058698      0.14597934776274
  H   6.67581038679841     -4.71949210610912      0.06712528676141
  H   4.07184495635068      1.99684294944556     -0.24516439378449
  H   7.56853144029213      2.10726778076783     -0.07560603811851
