21
Coordinates from ORCA-job 14972optt
  Br  0.94673886045266      0.11509605172970     -0.00797408353727
  C   2.82706388692859      0.10523546381718     -0.00256794022462
  C   3.53840088169264      1.24774749766155     -0.00265150939153
  N   4.93403543242562      1.20625071100062      0.00023754747116
  C   5.49220656514670      2.53941232857534     -0.00093236760828
  O   6.64794484099841      2.81851968409449      0.00081325783281
  C   4.29929076326162      3.40170380381683     -0.00446862479204
  C   3.15301537619026      2.65410782106154     -0.00541850219719
  C   1.98057593082825      3.43944407001066     -0.00794457072469
  C   2.29711390439688      4.77737209370192     -0.00896273706568
  S   4.00475731491180      5.06702500278795     -0.00688493353622
  C   1.39612122733576      5.86971156479574     -0.01142775594022
  C   0.64447441073134      6.80367852992477     -0.01308091509746
  C   5.69093706542338      0.01368014907355      0.00308846205043
  O   6.89395008720014      0.00932535899379      0.00425868224526
  C   4.86102603541406     -1.19539416588479      0.00415083446351
  C   3.51803642737857     -1.15227702045470      0.00129464704381
  H   0.96531448945732      3.07845190766142     -0.00887231152135
  H   -0.02329862852406      7.63224412840786     -0.01469034454712
  H   5.40728059531922     -2.12792636585312      0.00707924557400
  H   2.93201453303079     -2.06240861492231      0.00195391950271
