17
Coordinates from ORCA-job 1497optt
  C   6.54450138422495     -0.23629614314204      1.02554781347692
  N   6.28481471659138      1.09254413253614      0.50588903622541
  N   5.03029234240140      1.23011703358419     -0.01737912956177
  C   4.50445832244540      2.38184687161507     -0.03695769770963
  C   3.15874155592477      2.61245102812723     -0.65666326296244
  C   2.17089446924945      3.12756287386876      0.35130148071970
  C   1.58838813154255      4.31574604259890      0.29543721640178
  H   7.58766583635489     -0.28940130500937      1.33397802182452
  H   6.37876165538193     -0.95778307420214      0.22772632465934
  H   5.90445247806295     -0.50115145809230      1.87407840351503
  H   6.53196960431091      1.83327098723977      1.15702839685473
  H   5.01409954054041      3.24671816147727      0.40347582681713
  H   2.82003070210653      1.66296132346606     -1.07539672499016
  H   3.24771518364645      3.33401581004247     -1.47378594502817
  H   1.95286803361859      2.46015956944420      1.18065690200528
  H   1.79009760185943      5.00287715797440     -0.51895064563321
  H   0.88824844173800      4.64036098847139      1.05401398338554
