27
Coordinates from ORCA-job 14987optt
  Br  1.42496163155994     -0.69357363533623     -1.76719887459928
  C   3.04947494279637     -0.30683661734358     -0.89265831120489
  C   3.80099228474687     -1.33779531902932     -0.31290989724104
  N   3.36022115441262     -2.65591808255412     -0.39949750791117
  C   4.00499880361160     -3.51907293297193      0.26678781639542
  O   5.06724128700729     -3.32499216190152      1.05158370643032
  C   5.83458915014296     -2.11122131368094      0.93047913637172
  C   6.44569340736961     -1.84188335568180      2.32266661559301
  C   7.95445835929041     -1.84465916314401      2.06942755358318
  C   8.04821018859371     -2.72712760995478      0.83422066592363
  O   6.90524366528888     -2.35260801222271      0.06666584400544
  C   4.99251025077822     -1.00702632746780      0.34420843858007
  C   5.43631437886544      0.29928852154409      0.39329532498884
  C   4.68839672392700      1.30656141092935     -0.20160843673910
  C   5.16829775275833      2.70610300945536     -0.18418477674793
  O   6.21679680382525      3.05423640479467      0.28991690876801
  C   3.48793676904633      1.00134610599953     -0.83589338115315
  H   3.69140180496612     -4.55757296860683      0.27499067898668
  H   6.15551021032352     -2.66125244984911      2.97886480150419
  H   6.07458598554099     -0.91404538089653      2.75054189455592
  H   8.52482097239185     -2.22809936878525      2.91332778050320
  H   8.31262274677439     -0.84160267539152      1.83417205049207
  H   7.99324104933402     -3.78894216905091      1.09399328050974
  H   8.92664474161439     -2.55090294301509      0.21847475405397
  H   6.37307844923090      0.55898186292953      0.87295179099834
  H   4.48435660200610      3.43982779845753     -0.65140349699198
  H   2.89939988379680      1.78678737277395     -1.29421435965522
