24
Coordinates from ORCA-job 14980optt
  Br  1.20592138110913     -0.15374775849687     -1.01101217159903
  C   3.01163548012505     -0.11608362529481     -0.44470443005626
  C   3.64728101218372     -1.25625746684699      0.04781054929707
  N   2.93854063639889     -2.47503348503610      0.26680362287764
  C   1.88753072368872     -2.50960537630705      1.19022067823034
  O   1.46364251172844     -3.51732440375299      1.67143051200252
  C   3.70115433554396     -3.63279642144266      0.07845186027196
  C   5.01066618198920     -3.67319415820752      0.26975915635284
  C   5.76465985065451     -2.47100068925320      0.73271805728895
  C   5.02462735585674     -1.21653503986605      0.30293264498410
  C   5.71763531684907     -0.02999510876049      0.11695132019268
  C   5.06459446802848      1.11571205204043     -0.30909250612590
  C   3.71228430876536      1.07099201722998     -0.60049154561141
  S   5.62570565926261     -5.24323941652327     -0.18965282492371
  C   3.96676357147605     -5.76620008911238     -0.60473808133385
  N   3.55677039583906     -6.86795497188480     -1.02889039852453
  O   3.08621182189342     -4.73752395495060     -0.40668730775489
  H   1.50686591370626     -1.50776578054103      1.42419941112514
  H   6.76725846386805     -2.45435165383034      0.30251607626100
  H   5.88879116409872     -2.48557745989821      1.82062763177150
  H   6.78352658867983     -0.00919301325298      0.30882571811244
  H   5.61135839662683      2.03947677783584     -0.44010175426420
  H   3.19650675126678      1.94438571587289     -0.97373801325067
  H   4.30206771036109     -7.54718668972077     -1.13613820532371
