24
Coordinates from ORCA-job 14981optt
  Br  1.03244402203320     -0.21673892875555     -0.24278256744099
  C   2.90467715571732     -0.30573525415281     -0.11385911956120
  C   3.55560616758863     -1.39076803840317      0.37636044417281
  N   2.84826358138652     -2.50398331518150      0.88845593409916
  C   2.89428139068221     -3.80873079872035      0.41807375889607
  O   1.94277622392935     -4.54523629472521      0.53232438383663
  C   4.18290531410741     -4.24848025497712     -0.12774322312099
  C   5.40069300056940     -3.70550839762833      0.12384563342780
  C   5.76802973680223     -2.50127660583518      0.91540573055501
  C   4.99890522897358     -1.30704603626798      0.40961335498268
  C   5.64512761574084     -0.20772314661724     -0.03055891326127
  C   4.94529368792653      0.95936220054498     -0.53638892616839
  N   5.41329024538309      2.05923445917638     -0.98026851688577
  N   3.55795691930214      0.81234177396189     -0.51715891612969
  O   6.34801088891838     -4.42911315204402     -0.45778203056898
  N   5.76719314714919     -5.50060359628446     -1.11740094905289
  C   4.49139552537230     -5.39494703345422     -0.91049896173798
  H   1.93417340170747     -2.29399801127556      1.26968426636174
  H   6.83976619697889     -2.32632448213644      0.84968481615218
  H   5.50939614451551     -2.68290064181099      1.96308647742290
  H   6.72635265976053     -0.16731021644182     -0.02046838585701
  H   6.42740325244040      2.06235999966833     -0.94957152556067
  H   3.03352330359314      1.60067918957471     -0.86965737474135
  H   3.81353518942170     -6.12755341821431     -1.31939538981979
