23
Coordinates from ORCA-job 14991optt
  Br  1.25935765599329      0.26829269496787      0.44917819636885
  C   3.09075830809855      0.15348210230249      0.09926974778816
  C   3.79114296299477      1.24301466582814     -0.33996508035692
  N   3.10441268426564      2.40716222386975     -0.64715592219847
  C   3.14486688145789      3.55144281368913     -0.14273948108668
  O   3.99361975816000      4.03165617258914      0.80842707258849
  C   5.35102070793593      4.22782063382787      0.41754650856627
  C   6.22064919934782      2.99601902725259      0.61093317065903
  C   6.04347138934649      2.25221243067247     -0.71008889239792
  N   5.12977212519606      1.12396710161951     -0.62700386881921
  N   5.78754367583795     -0.04292368305105     -0.51518173795937
  C   5.15067618079196     -1.08801443855807     -0.12895516500010
  C   3.73634938975980     -1.13106458916666      0.26381720923754
  O   3.20507360632895     -2.15045581007691      0.65641638349551
  C   5.61492561226831      3.36153686306385     -1.68233162760815
  O   5.52562830840000      3.31286754228162     -2.85866907668447
  O   5.40464099577279      4.50889510708434     -0.96355187016155
  H   2.42008908015730      4.29093407105408     -0.47188462978672
  H   5.68057233386912      5.10570595463262      0.96364038297447
  H   5.92719321981003      2.41236580431376      1.48005522568009
  H   7.25678129156739      3.31339012800521      0.72491139078021
  H   6.96890005936734      1.82760989092894     -1.08783859629792
  H   5.72055457327249     -2.00791670713074     -0.07782933978113
