24
Coordinates from ORCA-job 15009optt
  Br  1.25125887730053     -0.55748543599003     -0.01687903727976
  C   3.10452613791735     -0.29343469182460     -0.23039067928516
  C   3.69356796933642      0.93392090417015     -0.49161607770856
  N   3.14889127778766      2.20470279252360     -0.70065560381680
  C   1.95178351769819      2.54157896823136     -1.29846126009184
  O   1.69239864567580      3.66721553439790     -1.62748410214839
  C   4.20676177713606      3.19877402230290     -0.58862428209572
  C   5.52992460170141      2.43019501758668     -0.76971257911652
  N   6.41501594563007      3.02244493469231      0.21891348373758
  C   5.78706516708826      3.70347991410273      1.23615308989546
  N   6.22102957525228      4.20764731007714      2.30796856794444
  C   4.32016313749690      3.77663279672641      0.83093831211688
  O   3.41931455329437      4.15004163009037      1.50841070500252
  C   5.08971741745497      1.00184070410291     -0.51759285754141
  C   5.83535332346423     -0.13731545025020     -0.32092165468560
  N   5.27344294223062     -1.32647614265854     -0.09897043654338
  C   3.95220804606582     -1.38893870721831     -0.05586587232693
  H   1.28329950203669      1.69103596401765     -1.45788517788655
  H   4.04134611122231      4.00533314199132     -1.30217415014459
  H   5.95665870080310      2.54315158802713     -1.76731899924400
  H   7.36947751239601      2.71545818164759      0.30808760927894
  H   7.21956512617933      4.05138445386837      2.44094302350077
  H   6.92013471257997     -0.10878389087799     -0.33681939980285
  H   3.51309542225158     -2.36040353973687      0.14095737824145
