22
Coordinates from ORCA-job 15001optt
  Br  1.48910205821279      0.34635580552652     -0.26123785059966
  C   3.27054651956884     -0.09303087280576      0.05933613947802
  C   3.71639276545101     -1.37384514220557      0.15037833684722
  N   2.91283682746962     -2.48875299701140     -0.10968756667383
  C   3.48256472006129     -3.60517372076877     -0.29009983540840
  O   4.79546928569730     -3.92259470742310     -0.12679729231305
  C   5.54096187057334     -2.98222537931055      0.52337354250536
  C   6.77888786485741     -3.15414240439064      1.04780837375702
  C   7.92132832132698     -3.32040122913345      0.12362707415702
  O   8.43095015088787     -4.26744130751781     -0.40338681406937
  C   8.27274404882957     -1.89777321331637     -0.26926879464255
  C   7.47289543194009     -0.81707575394858     -0.15509818664483
  C   6.04928001269551     -0.64547494420644      0.22869112879629
  N   5.56860403652474      0.62409752780712      0.13224366161766
  C   4.21844073991173      1.01957602348686      0.13562593694020
  O   3.94635809182325      2.19567169333893      0.12445733765891
  C   5.09609770392317     -1.63165927597242      0.41220524715437
  H   2.92146642376280     -4.47601496052054     -0.60643966311072
  H   6.99439499283031     -2.31855989217885      1.70162664286963
  H   9.19663694908475     -1.79201059518932     -0.82809439607215
  H   7.88518781441597      0.10600157832264     -0.55414634683789
  H   6.20685337015160      1.40047376741751      0.01388332459073
