25
Coordinates from ORCA-job 15006optt
  Br  1.26604850894587     -0.67302330856970      0.00235431221013
  C   3.11001570030109     -0.39183887409515     -0.30349370881128
  C   3.65025209247149      0.88345671464417     -0.16350634555454
  N   3.03041474400353      2.02926280040078      0.35965578953080
  C   3.81351281472020      2.91434070466687      0.82221193083201
  O   5.17807542053428      2.95156152852164      0.79652152985259
  C   5.78485163285112      2.17973110724071     -0.23985033279265
  C   7.16907191473101      1.58280257421848      0.08577914863390
  N   7.17814055325079      0.21864082904087     -0.52413679174188
  C   5.80373077126448     -0.13611946266812     -0.63694675457214
  C   4.99868505435368      0.93717768106206     -0.41749603182646
  C   5.16188650790497     -1.37556863603957     -0.73560033413522
  N   5.87739516375303     -2.53063753269065     -0.99210585632168
  C   5.25327329175285     -3.80646139308387     -0.72385149220872
  C   5.07032811146197     -4.07482216247956      0.71614051783567
  N   4.97048208527477     -4.27830154971225      1.83877187816044
  N   3.84113559983349     -1.45460055670490     -0.59812337866717
  H   3.42209431619739      3.77274083459836      1.35587849386980
  H   5.80141931295349      2.79354795512359     -1.14841674608157
  H   7.25591291249761      1.48102318886303      1.16894820797783
  H   8.00348455980004      2.17251638816263     -0.28484774138052
  H   7.66879029292491      0.20277759633851     -1.41134133413384
  H   6.85024254044095     -2.45933365321105     -0.72481622475954
  H   5.86811497085622     -4.59933182551440     -1.14655427707216
  H   4.27664112692070     -3.83154094811250     -1.20317445884380
