27
Coordinates from ORCA-job 15007optt
  Br  1.44535501830882      1.01090577815441     -0.79700289307961
  C   3.31091565647768      0.65306067797038     -0.55674693212341
  C   3.75700286680877     -0.68713218540539     -0.49587584656161
  N   2.79721259481325     -1.70055353977488     -0.56070739762699
  C   2.80193083883092     -3.05184262675938     -0.27226949396158
  O   1.75564058262831     -3.65797650340095     -0.26289878123910
  C   4.12623836038211     -3.71894953713404     -0.02185918833701
  C   5.18612417211124     -3.19779054462814     -1.00958344874196
  N   5.83513996250914     -2.09018408784112     -0.32955190615097
  C   6.03112534434074     -2.59802744576203      1.03440997772681
  C   4.72690320543330     -3.35012476547215      1.37067166310593
  C   4.92521813685535     -4.58508376635882      2.21644897187317
  O   5.99118533423498     -4.96030025463875      2.61546795662818
  C   5.14769080624692     -0.84900722580128     -0.36599042592730
  C   5.93843390647039      0.29200253229958     -0.23769715422014
  C   5.36957970579980      1.54337006613876     -0.27727388687383
  N   4.05914906078976      1.71321896010802     -0.45668197077673
  H   1.85218759494206     -1.36974084535602     -0.71565511027911
  H   3.94375051073416     -4.78829987126385     -0.11861376165703
  H   4.77127183349602     -2.88836222572969     -1.96756537034533
  H   5.93802863406097     -3.96683618350831     -1.19021742299363
  H   6.25498225951125     -1.78868675766318      1.72526344786405
  H   6.86529322314095     -3.29992533474401      1.03809264279519
  H   4.02685489233142     -2.70521725872710      1.91195668425177
  H   4.00310014333037     -5.15251677259254      2.44474315356487
  H   7.00741801487017      0.16185342255757     -0.13827301433182
  H   5.96626734054110      2.44214629533295     -0.18959049258280
