22
Coordinates from ORCA-job 15019optt
  Br  1.04037743412144      0.06688551478458      0.20204152388778
  C   2.92310916649370      0.09776631126319      0.10739662152007
  C   3.59051880622889      1.31179573279701     -0.09927237729122
  N   2.80906501321662      2.44249795798372     -0.36177506354037
  C   3.09606288927134      3.59068654245704      0.04089879635932
  O   4.19971473027433      3.91523649312109      0.80199579812457
  C   5.37655088798102      3.74224530887150      0.12314159428498
  C   5.76610782325933      2.52352119907522     -0.31150875717146
  O   6.94409448854230      2.32677365056721     -0.93639061534693
  N   7.83989404491978      3.34249242531556     -1.12076867844545
  C   7.50287109493082      4.50992700300817     -0.73395936826094
  C   6.22448480064077      4.89418021980215     -0.09830835227296
  O   5.96467619402580      6.03790411321122      0.19869576492351
  C   4.99633759528213      1.28839672849567     -0.13792114028304
  C   5.68758271865334      0.08167402873491     -0.02213560726494
  C   5.00118344220562     -1.09799074531636      0.18352126316757
  C   3.61508781584535     -1.08903843812419      0.26062081815461
  H   2.45885028692656      4.44294935029369     -0.17180750127229
  H   8.24276919303582      5.28347833413807     -0.90477002228510
  H   6.76678300956917      0.08703869879470     -0.08116382263056
  H   5.53935568174085     -2.02992352689140      0.28909753503898
  H   3.06552288283498     -2.00449690238276      0.42937159060386
