25
Coordinates from ORCA-job 15017optt
  Br  1.99691116896783     -0.81501864146485     -1.19350113706602
  C   3.54113740215105     -0.01960473119487     -0.47114091307063
  C   3.46618140935025      1.22094004734009      0.16320975913487
  N   2.21851019392058      1.81897645597494      0.32878623338516
  C   1.87800700808478      3.02049624629076      0.49229138692438
  O   2.58692812124978      4.16629970766665      0.50899606772351
  C   3.98394197211787      4.07829666555244      0.31028733481303
  C   4.62088810181909      5.42518831228144      0.54445951874266
  O   6.00832557210128      5.25105597071310      0.30100235251284
  C   6.65241455917436      4.32712139457121      1.06803699609728
  N   7.89560364931846      4.23295201282080      1.14726665999225
  O   5.85102961795188      3.53667489853283      1.81227853074362
  C   4.60927005422938      3.08865239082086      1.30991102251756
  C   4.67818194084963      1.72839564684265      0.66766794905397
  N   5.84576414228277      1.13015376528592      0.55375086126679
  C   5.88387733165010     -0.04791140169760     -0.06439120081468
  C   4.76201835646463     -0.66322842046870     -0.59285371621815
  H   0.82910655314102      3.25255504046795      0.65077864028751
  H   4.18583480020963      3.76554662864901     -0.71751192402973
  H   4.43863932640824      5.76954053233790      1.56585702512835
  H   4.26714438513293      6.17168806819988     -0.16176374724182
  H   8.33549713302346      4.97396160801294      0.60905116009821
  H   3.94696337373439      3.04987139058304      2.17985137952977
  H   6.85683485205846     -0.51801006996064     -0.14600387687895
  H   4.83398897460811     -1.61959351815777     -1.09031636263178
