22
Coordinates from ORCA-job 15014optt
  Br  2.11066627935302     -1.40703393646992      1.81293287264369
  C   3.44786803549220     -0.98049513244609      0.56514473590767
  C   4.16871354085232     -1.89742132208698     -0.12033576732589
  N   4.48213003982575     -3.27740905082640      0.12877592965474
  C   3.60637939391400     -4.28326130010604      0.42327443415171
  O   3.95909941707218     -5.42703347103543      0.57862172640452
  C   5.87248363275768     -3.62457263838085     -0.31843381569806
  C   7.05450758350399     -3.77719934180888      0.70784003834148
  O   7.94981840372413     -2.59427646356779      0.54870711069328
  C   7.31484730667052     -1.80485678289741     -0.29994522415151
  C   6.27667544319207     -2.35122910615861     -0.96463325703924
  C   5.29952689444570     -1.34897598429694     -0.79889220174054
  C   5.90290185642924     -0.17938279729504     -0.43689214113301
  O   7.26119200639919     -0.46677740078886     -0.17214389226890
  C   5.13842038018341      0.84190524445356      0.22925531425419
  O   5.44343038222238      1.94611330116794      0.60029573460259
  N   3.80584847704112      0.34496557237532      0.46203969888789
  H   2.56303015928971     -3.95125211748299      0.50140306535138
  H   5.79528136760158     -4.52298953596290     -0.92654575277997
  H   7.65227103376666     -4.65499646950905      0.48293844180817
  H   6.74036672167959     -3.78719807380315      1.74959997232469
  H   3.22454164458352      1.02937680692653      0.92699297711114
