22
Coordinates from ORCA-job 15022optt
  Br  1.62151716835238      0.05446833727683     -1.29187307841306
  C   3.14308331983261      0.13663580216394     -0.21932858569795
  C   3.74430277937464     -0.91650439263441      0.34568991088049
  N   3.73169223547724     -2.34363374086149      0.14087976249376
  C   2.62479340778023     -3.16648683703679      0.08229377999772
  O   1.49693583495377     -2.78763746259731      0.21806301418541
  C   5.11304538055281     -2.74958182011625      0.18590367060837
  N   5.88602736966614     -3.45606707121151     -0.54330306634182
  C   7.24512514650978     -2.79878939311307     -0.39889350681598
  C   6.95261172560584     -1.48015891479851      0.34412146724976
  C   5.75760575829321     -1.72026134679985      0.92364646320866
  N   5.00989799553159     -0.59360363775791      0.91990882371935
  C   5.84330344507522      0.35512225424505      0.37892348545496
  N   7.03575561557776     -0.12826553151271      0.05479270666162
  C   5.15027306954153      1.60028771366703      0.00698999616507
  N   5.62458173227862      2.74230673549621     -0.24580513894858
  N   3.75867207350738      1.38054132925059     -0.08419536897050
  H   2.91736301369795     -4.21074935344372     -0.09619158573223
  H   7.59556894938725     -2.60797007086249     -1.41220338079932
  H   7.95888813100560     -3.45551707573214      0.09757068384523
  H   6.63034212086377      2.75325371726887     -0.09633359376268
  H   3.23961372713463      2.19361075910965     -0.38465645898829
