21
Coordinates from ORCA-job 15025optt
  Br  1.10518933281194      0.12923937556031      0.03642339395358
  C   2.97780858834700      0.01084195495070      0.05596597540909
  C   3.61432236896917     -1.20824681816804      0.06052701547616
  N   3.18293334457439     -2.49769387242763      0.05799922191114
  C   4.32124560358932     -3.26007596937441      0.06633569143889
  O   4.35006905566576     -4.60283696633268      0.06647041357403
  C   3.21980053288328     -5.31583053343138      0.06659180307478
  N   1.99611699125498     -4.92961350974634      0.06378430771715
  C   1.28398852517326     -6.12986743903726      0.06613920616846
  C   2.15292235291753     -7.15241608086548      0.07007726901534
  O   3.42099654740306     -6.62454659466514      0.07031237284116
  N   5.40601589873700     -2.57550565259023      0.07356747992122
  N   4.96238729975221     -1.28119243383573      0.07010478229931
  C   5.83029961701914     -0.12711193512392      0.07661113286984
  O   7.01683172205025     -0.29101338281190      0.08276504043900
  N   5.15015927928450      1.05836280982066      0.07492482825794
  C   3.84075048066058      1.11175522689586      0.06495672738386
  H   2.23409368956274     -2.85582172697973      0.05365626725791
  H   0.20868993557380     -6.14974740976013      0.06507501731983
  H   2.07502199294068     -8.22338786979853      0.07284643828874
  H   3.39835684082937      2.10470882772103      0.06386561538259
