23
Coordinates from ORCA-job 15029optt
  Br  12.38828120901310     -5.53337673270512     -0.22168951815031
  C   11.03466006323464     -4.31276504001952     -0.73849314854686
  C   9.69857826735531     -4.71277690291132     -0.64148085750933
  N   9.34084333211762     -5.97883535308982     -0.20893009007927
  C   8.05879700718040     -6.47359478521108     -0.13016567473829
  O   7.85170637771194     -7.63831328147597      0.08116249288836
  C   6.92790707026329     -5.46687691887213     -0.26671365904203
  N   6.46096498030266     -5.10611294476301      1.08482697862139
  C   6.32694913807632     -3.85363003824024      1.07363655486796
  O   6.64511429011861     -3.15826644800461     -0.03695485113139
  C   7.25899232671824     -4.11307949229938     -0.92687463296249
  C   8.72835898374497     -3.78424001424586     -1.02868598869385
  N   9.01666918735989     -2.57675783078814     -1.49581416914636
  C   10.28338894576374     -2.21533605040514     -1.58120626212681
  C   11.34178018310730     -3.04521942922195     -1.21015647309210
  C   12.72924712611808     -2.51950808892605     -1.35899565137291
  O   12.95610895782419     -1.41123623698385     -1.75999227212889
  H   10.07120783380749     -6.65958346865489     -0.04681865425585
  H   6.12147758252716     -5.99116842459000     -0.78073858490125
  H   5.95746391441977     -3.25712321469757      1.89772881489696
  H   6.79846850482317     -3.98625699926596     -1.90498172419034
  H   10.50594683177175     -1.22722408975487     -1.96455642653488
  H   13.54708788664015     -3.20271821487340     -1.08310620267143
