20
Coordinates from ORCA-job 15033optt
  Br  0.90966878113485     -0.18112271843395     -0.22311336544566
  C   2.78889386994895     -0.10221819134999     -0.14220689415542
  C   3.51957996993201     -1.22938565440463     -0.05801237689568
  N   2.93000308374252     -2.49632676435317     -0.00157132269360
  C   3.56108088176561     -3.70895788464297      0.01525747799983
  O   2.98963956095396     -4.76343556179087      0.05025890655604
  C   5.04023912014985     -3.57163255416850     -0.01466785513612
  N   5.86615538922758     -4.53985281565870     -0.02189058119855
  O   7.12454421257305     -3.95708288277269     -0.05239449038206
  C   7.03947467685914     -2.58622865494895     -0.06548724301022
  N   7.98351720873645     -1.77279216237652     -0.09978277432247
  N   5.65368496377101     -2.33310357721193     -0.03733901603675
  C   4.98376682423089     -1.11420442721035     -0.04096418785007
  N   5.67816394080996     -0.04921068429576     -0.03716737820785
  C   5.16090151001567      1.22960104143861     -0.03797410331384
  N   5.84266768056108      2.28596313523884      0.04385601536983
  S   3.40038140411787      1.50936277698928     -0.19656675079295
  H   1.91878191838758     -2.54295865482880      0.00997312589062
  H   8.87563452035121     -2.26154703100091     -0.11837647390738
  H   6.83322048273064      2.04913326578200      0.10216928753231
