23
Coordinates from ORCA-job 15035optt
  Br  4.24455699565200      1.33240733478438      4.94388938310065
  C   2.58762026467568      1.76023514376053      4.20498526309020
  C   2.40428666392732      2.06106824489085      2.89259145458928
  N   3.48991905645028      2.02885999338309      2.05167228730857
  C   3.74532292407304      2.52979302433067      0.92018739368793
  O   3.07096436352481      3.37412412746510      0.15241017477920
  C   1.82262067917427      3.90099909591874      0.64547528440655
  O   1.16891783665316      4.47289521513067     -0.41762764810137
  C   0.11057217382947      3.61897486549951     -0.86199879065582
  C   -0.06350577763486      2.62654433781184      0.24479480496118
  C   0.91179300955154      2.80280973248657      1.12239641993923
  N   1.11257314770691      2.21553593072469      2.37555476828743
  N   0.01148250276633      1.63961655221548      2.91078633411165
  C   -0.00477605676099      1.32445039548422      4.14029519551433
  S   1.24128940636704      1.78818728673943      5.30112747001738
  O   1.37388698609294      0.76100752285366      6.28860497665939
  O   0.96284468795710      3.13388771146000      5.70986719302633
  H   4.68426229390892      2.26208826813088      0.44384266305313
  H   2.06794035923129      4.65169218066757      1.40078678102004
  H   0.38436451527103      3.14463065165183     -1.80927097499876
  H   -0.77092742148290      4.23976096804807     -1.02443196902356
  H   -0.86910760117340      1.91313140661721      0.31178303562784
  H   -0.87390100976103      0.81530000994490      4.54027849959913
