25
Coordinates from ORCA-job 15037optt
  Br  1.14345977409635      0.12450022250994     -0.16582925027902
  C   3.02665888109736      0.04604762661409     -0.08687022144559
  C   3.76206551981636      1.21118649063000      0.01216538203491
  N   3.31584755646162      2.51607933698700      0.07959485001813
  C   4.36451729363010      3.42385752197350      0.10580017593467
  O   4.26752080783231      4.61374075562085      0.07832222285664
  C   5.65438479923889      2.58651173594113      0.22056536409318
  O   6.61824944494642      3.04277720435991     -0.67524991190460
  C   7.84669810746313      2.37739844952111     -0.53464179052026
  O   7.82815964979244      1.06634318970884     -0.99543093348046
  C   7.37276871314521      0.05622926911914     -0.11342641421110
  C   5.86176890288691     -0.00676985635936     -0.04467056642862
  C   5.15858856381473      1.17320139109188      0.03807055118072
  C   5.10799839490168     -1.19970303612891     -0.09900381954609
  C   5.70539742771341     -2.55197548466232     -0.08464203751527
  O   6.85888361397919     -2.81074899770744      0.14095631834652
  C   3.71436524930750     -1.15491197069300     -0.13122402750023
  H   2.34938456505704      2.79463724610432      0.00044082690470
  H   6.01260761000420      2.70866952285591      1.25653271234445
  H   8.15657844256486      2.40309163715060      0.52102561264427
  H   8.54827169996152      2.92500593154904     -1.15749190248340
  H   7.77790308183780      0.22150139092953      0.89415701184695
  H   7.78048027301692     -0.87854101557833     -0.47999662341575
  H   4.97825710344066     -3.36377694999943     -0.27815081773948
  H   3.15718452399333     -2.08235161153801     -0.19200271173527
