21
Coordinates from ORCA-job 15031optt
  Br  1.04542970744242     -0.02580813549051      0.35524015809215
  C   2.92071648714798      0.01048949197127      0.16077218848696
  C   3.56913217395179      1.23431341612058     -0.09188275513556
  N   2.78735393061716      2.36659656533578     -0.31154897399513
  C   3.12319673215022      3.51975662817137      0.04405611454994
  O   4.28121530781855      3.87078678227004      0.68515272496575
  C   5.44630330880761      3.65702544427944     -0.01394278272834
  N   6.17231631040983      4.69349694150569     -0.19278098582467
  N   7.34590902225749      4.51997223851524     -0.79719602484106
  C   7.89581286525423      3.33420937042036     -1.25552951235678
  O   8.99302235129718      3.30837685551536     -1.76985464938104
  C   7.02197146968946      2.18938157304913     -1.03703084553178
  C   5.82142547799746      2.33285640442414     -0.43582863290417
  C   4.96107132558117      1.15362200669832     -0.17731345146693
  N   5.60462207400297     -0.01290599817616     -0.07282931328105
  C   4.87987439642976     -1.08827326999149      0.15231061610866
  N   3.55407172495807     -1.12493251188515      0.29177049194397
  H   2.45487380468752      4.36159785276774     -0.10494207365092
  H   7.90225630939418      5.35636765488330     -0.90729306890892
  H   7.37818986106486      1.22041184383738     -1.35639896274669
  H   5.40223535904002     -2.03334115422185      0.23906973860561
