24
Coordinates from ORCA-job 15043optt
  Br  1.34507425493424     -1.50470050203396      1.03032758584723
  C   3.11357257263277     -1.11755201217039      0.49301500609385
  C   3.49231818962278     -1.30150076438838     -0.81861127302854
  N   4.73214559427286     -0.88333966313932     -1.16574904260994
  C   5.79264499724495     -0.65299660570020     -0.25993788009301
  O   6.85191531264125     -0.23802064036299     -0.64857647198491
  C   5.45470999115716     -1.18874474310207      1.06865944276139
  C   4.14321611869530     -1.12763348924165      1.46250529437239
  C   6.22152092249413     -2.44124684279525      1.22602172764414
  C   5.48605782330438     -3.56941673145385      1.20224362411536
  C   5.83730349074116     -4.71191807018766      0.32635211302386
  O   6.82691548275041     -5.35507328203572      0.24553948285585
  N   4.72192804549437     -4.83484921923908     -0.65466719990862
  C   4.68737128839636     -3.84214824015813     -1.62087556141923
  O   5.69883291760469     -3.33052810499413     -2.03670096844929
  C   3.31915619441882     -3.39120468807947     -2.08309676739141
  C   2.78349574598654     -2.21233402631291     -1.74742642346437
  H   5.05779011835249     -1.07757306354529     -2.10671954353977
  H   3.87206274083588     -1.46917132984311      2.45593838037611
  H   7.26238673165702     -2.45119945922282      0.92378834799218
  H   4.42151774941779     -3.48988119231008      1.37621957240111
  H   3.82348912802487     -5.04168386746402     -0.23535055842861
  H   2.75074242062565     -4.08186384732011     -2.69594735007801
  H   1.77783216869407     -1.96441961489937     -2.06295153708774
