26
Coordinates from ORCA-job 15047optt
  Br  3.87905878883981      1.98308079027245      2.89627044371137
  C   4.89358263443173      1.63821094281029      1.33532223169761
  C   4.37849137655819      1.88910851351157      0.09151884682869
  N   5.13785704076797      1.75521874311028     -1.06910427908096
  C   6.53985226985978      1.43293876921604     -1.10287667995925
  O   7.17900490673703      1.57260475001389     -2.09861741854931
  C   6.77029869990948      0.87295633990546      0.26481240524811
  C   6.35907910584884      1.76314177919605      1.22255762155531
  C   6.81279692371512      3.13700900131579      1.25879350536670
  C   7.88255501000037      3.63892397531914      0.62634577252000
  O   7.90126293826282      4.97465132024700      0.23951145544617
  C   6.77110019798343      5.16576137434962     -0.55066458414031
  C   5.59163157114818      5.55029701880556     -0.06811079657658
  C   4.44302745590161      4.84181135420655     -0.64072733499676
  C   3.63049533632243      4.16526486130740      0.18108212753125
  C   3.16858471213931      2.78131115295612     -0.16225247411579
  N   2.10917577064712      2.34197466737133     -0.67539475196801
  H   4.73822350089257      2.08970660961476     -1.93609530807957
  H   6.27188703868743     -0.09419814342630      0.32065205175263
  H   6.08540646175560      3.84462043119819      1.63354058881830
  H   8.73981009703305      3.06215163419761      0.29742344068071
  H   6.87387969337183      4.73375362100721     -1.54307843921401
  H   5.51973766020091      5.92138088151717      0.94757741619485
  H   4.50319655639091      4.57151333079986     -1.69123531938996
  H   3.65537334335414      4.38178245944155      1.24555898449286
  H   1.44163090924025      3.10102382173540     -0.82180950577406
