27
Coordinates from ORCA-job 15053optt
  Br  2.31739601699973      2.09304032030747      2.18690165500000
  C   3.76140783726041      1.97839631282814      0.97804811055730
  C   3.60462217025034      1.88041291094459     -0.40238322745912
  N   4.69233401596668      1.78182907656233     -1.27375373618149
  C   6.04221999404439      2.14623097848843     -0.86868173735543
  O   6.82746450219250      2.55534162532001     -1.66320795892716
  C   6.00469253707051      1.85784688581043      0.59365936229213
  C   5.03195117764729      2.62511054961333      1.18438917937215
  C   5.13139510220429      4.14327894177789      1.27269491186642
  O   3.88927299372043      4.80855398658269      1.15923484495307
  C   3.84597529570051      5.99387205582155      0.38193187450888
  C   2.45548512058402      6.18698246682047     -0.27663201895901
  C   1.98987152767672      4.87966456087411     -0.86728060832176
  C   2.88336812352529      3.93403841030291     -1.21894710706879
  C   2.43413312455803      2.59286572826280     -0.98399529657647
  C   1.10221349616475      2.55485609171609     -0.70332018756383
  S   0.45221704497601      4.14249749964821     -0.58234873690699
  H   4.48580482619559      1.98689386822408     -2.24429363741885
  H   5.80192013028672      0.79210237134398      0.69608876504223
  H   5.83303365389009      4.45693490398450      0.48185249350499
  H   5.60808553112114      4.40234824431437      2.22443564084985
  H   4.06702183144325      6.86514250465149      1.00587145246840
  H   4.61158385561163      5.94837543637965     -0.39987955597607
  H   2.54409676815935      6.99356855612057     -1.00805245562980
  H   1.73708552211594      6.51222646990013      0.47635107356247
  H   3.92986721151326      4.15917667532726     -1.36447647971485
  H   0.49548058912106      1.70241256807242     -0.44620661991826
