25
Coordinates from ORCA-job 15059optt
  Br  4.79941862345988      2.84053573955639      2.49020660764471
  C   5.27444994357019      2.12443928020495      0.82295930332925
  C   4.33071562036127      1.89528569978039     -0.14230098700217
  N   4.68373634695459      1.19641533243664     -1.25145758402934
  C   5.96282875336302      0.69404388133659     -1.53383805129319
  O   6.14730870562942     -0.00245850165395     -2.50768771202252
  C   6.97522098482395      1.19754617276255     -0.62664944378417
  C   6.64859393332302      1.91138224759655      0.48033897116128
  N   7.67573691546596      2.54288105184785      1.23918732385601
  C   8.02474004079560      3.87951592661440      1.23378570129233
  N   7.42571580649396      4.92476339106304      0.81243039823174
  C   6.20083657853438      4.81560874738996      0.19684609336999
  N   5.19734368381594      5.53431889611567      0.54135381181704
  C   3.95828042186221      4.93747955613857      0.26256264311129
  C   3.68277799104444      4.04177047600137     -0.70468112629249
  C   3.07553702834840      2.75046784932749     -0.27850038045871
  N   1.92207843050683      2.34512739643812      0.00658624307977
  H   3.97596413952963      0.98521504800000     -1.94496267489462
  H   8.41354144001088      1.93171956393724      1.55261066667234
  H   1.23352820915621      3.07690622492338     -0.17605401060320
  H   8.00532712835837      1.05389864105097     -0.92073314525236
  H   4.38514145480063      3.94120195010988     -1.52701217781731
  H   3.26106813172558      5.06276112139339      1.08539988560321
  H   6.12523405880208      4.03895694757263     -0.56419461210258
  H   8.98887562926351      4.02421736005588      1.71580425638367
