22
Coordinates from ORCA-job 15051optt
  Br  1.46406011293094      0.22922347696926     -1.24682539128997
  C   3.18936972150295     -0.06706203510306     -0.56455245096870
  C   3.55496219523180     -1.17479135363460      0.12159576269042
  N   4.87579623453850     -1.30387640581278      0.56326293713067
  C   5.79955818583233     -0.22335420726783      0.55310660304226
  O   6.86674611840672     -0.30142231757645      1.11803124879300
  C   5.36893145134797      0.91738420759413     -0.23317094404962
  C   4.14476793874387      0.97677660952287     -0.78329761678818
  C   5.42381596973090     -2.61029084455503      0.78521466959825
  N   6.30185156315201     -2.94054667057214      1.60750559356954
  C   4.96158802576126     -3.60124004709463     -0.25190015964079
  N   3.75852171795777     -4.00021659301100     -0.34776852928016
  O   2.97253159217104     -3.49584133523192      0.71174919849679
  C   2.58309089778081     -2.18692397210308      0.64389005507880
  N   1.49509895489834     -1.81392971728198      1.13788195907885
  C   5.92333104049137     -4.06868193355717     -1.19702792009452
  C   6.76309722939892     -4.42284516039117     -1.97218074610908
  H   6.09727709133061      1.70719377524230     -0.34845169391150
  H   3.84267078744118      1.83226903371980     -1.37271825537051
  H   6.58043155252174     -2.16819199717815      2.21007818368481
  H   0.95646731573507     -2.61465880874192      1.47003157525716
  H   7.50603430309381     -4.74897370393546     -2.66145407891755
