20
Coordinates from ORCA-job 15069optt
  Br  0.93546997959336     -0.07953596497159      0.03043349811335
  C   2.79045359746702      0.05241951306779      0.03064787748271
  C   3.48437249312134      1.19276612982785      0.02934387602967
  N   3.10039834159085      2.50199528525907      0.02756841108213
  C   4.23116606006336      3.34851598351822      0.02692637677399
  O   4.17285601946182      4.55030351627222      0.02565827998096
  C   5.39620255097712      2.44351771595794      0.02816781261812
  C   4.94468629394665      1.17535304892513      0.02964916639907
  C   5.56700969995341     -0.12068877743362      0.03131764070098
  C   4.75784222372757     -1.21117147701406      0.03256699793099
  O   3.41418232141323     -1.16381048425354      0.03229442106802
  S   5.31992610345513     -2.84918254041654      0.03466072562069
  C   7.08904646341568     -2.65935608758202      0.03550142153759
  N   7.85816082522421     -3.65526348608834      0.03799513865170
  C   7.61097446134182     -1.26238410616292      0.03310859058480
  Br  9.49986726816390     -1.12982417970798      0.03291057606868
  N   6.94737925518893     -0.19252321114218      0.03142029044635
  H   2.15472948190750      2.84667672475517      0.02732147532708
  H   6.41661286299794      2.78647347052887      0.02791196145404
  H   7.37466369698912     -4.55228107333945      0.03959546212909
