23
Coordinates from ORCA-job 15061optt
  Br  1.90143103827035      0.55039296991705     -2.63833368697579
  C   3.35950561590303      0.39523324851294     -1.45348550870966
  C   3.20369314797525      0.64842891976186     -0.12678406874366
  N   4.31653407055361      0.54802095532981      0.66851920728447
  C   5.32930030729622     -0.39176787652994      0.46331348607434
  O   6.14299422380427     -0.63585678025981      1.32343608979327
  C   5.18948864043321     -1.05914735380155     -0.83357269281460
  C   4.41200623157677     -0.50892307451770     -1.80181363859858
  N   5.68176909845084     -2.37105883380655     -0.92814397807580
  C   5.05965397110968     -3.28020605598446     -0.30379952067140
  O   3.93643933328679     -3.21836914476751      0.46699765563902
  C   3.02773921904553     -2.19665630237458      0.31771084183903
  C   2.52257305752073     -1.53637011639514      1.35586037841643
  C   1.68883783910796     -0.30882368358990      1.23103665165164
  N   1.97031306133469      0.73220654699599      0.53877641046238
  C   5.62760836885486     -4.67618063267834     -0.35884378050398
  O   5.11131830553960     -5.61074420745364      0.17199067800540
  H   4.21773251062049      0.81807199501675      1.63946857215935
  H   4.36408176812687     -0.98835737888779     -2.77199299094601
  H   2.71932947938927     -2.00643690123003     -0.70084189517804
  H   2.79660062838106     -1.84599020861678      2.35973413667342
  H   0.77907801890469     -0.26139331389719      1.82621460625323
  H   6.56097206451419     -4.73107277074350     -0.94044695303446
