23
Coordinates from ORCA-job 15077optt
  Br  1.00802842849623      0.03179365199687     -0.34158588011009
  C   2.86223449211572     -0.06637775515185     -0.21434598309817
  C   3.55524427730721     -1.18436379504062      0.02127888952639
  N   3.21351844263386     -2.48964844676712      0.22586053583390
  C   4.36649783368034     -3.27672753604804      0.41660979003978
  O   4.35777172846804     -4.46441113403140      0.61489122774132
  C   5.49829376715601     -2.33160891990752      0.31281826208030
  C   4.99613720578980     -1.10125540004744      0.07852697156445
  C   5.55365436237361      0.21075589562493     -0.13720096757500
  C   7.04066710922109      0.43905310593221     -0.12249128928596
  C   7.62203903683619      0.27772645965304      1.24744850666554
  C   8.56422145619958     -0.58803814510845      1.68447009487280
  O   8.81462489218573     -0.39525367529674      2.97931961766514
  N   8.02391745882060      0.62263985738148      3.44359095810351
  C   7.31975172150995      1.01931914532494      2.42700799381563
  N   4.83140277382230      1.25270380341652     -0.35762629728782
  O   3.46398755496310      1.12794963639660     -0.39054589596810
  H   2.27997223968276     -2.86653181168278      0.24389778474268
  H   6.52520664109541     -2.63684120452509      0.42461898543145
  H   7.22935666200728      1.44237762140177     -0.50443036264410
  H   7.50752459849045     -0.27521734019240     -0.80436621061605
  H   9.12843701049835     -1.36748752114563      1.19776442279751
  H   6.61051030664632      1.82344350781674      2.55448884570488
