19
Coordinates from ORCA-job 15087optt
  Br  1.29155515481501      0.28566402395237      0.31156003050575
  C   3.10689602064038     -0.00334091548673      0.09504072663113
  C   3.73626112910220     -1.18343430811646      0.01146866405382
  N   5.15390481329300     -1.20741581125742     -0.01553767403391
  C   5.65759196305271     -2.49786971806960      0.08931883799521
  O   6.81987506298228     -2.80457472224637      0.13614982605316
  C   4.44542208418830     -3.34458122399930      0.12515586639819
  C   3.33546871730028     -2.57897169711501      0.05943535760129
  C   1.98126164066900     -3.14717014729380     -0.10316997802741
  O   1.06385694823060     -2.61551990626266     -0.65634687241829
  C   1.83803806699439     -4.52328973805127      0.43027701652601
  N   1.73897363392346     -5.58583004538765      0.84620694790623
  C   5.84328679399200      0.00609965822119     -0.01999428598438
  C   5.14645944166874      1.14256978183132      0.01474962939238
  O   3.78296379520359      1.17693930778105      0.07545991750699
  C   7.27055210335588      0.05099214110322     -0.08373217941998
  N   8.40595046832857      0.19808750731571     -0.13593924631557
  H   4.49106994873052     -4.42225475740948      0.17553091389929
  H   5.59261221352902      2.12290057049091     -0.00163349826990
