24
Coordinates from ORCA-job 15085optt
  Br  1.16928099911490      0.19141046212211     -0.13340999954617
  C   3.02778089195592     -0.01066810763758     -0.10068812433136
  C   3.66072417292732     -1.20133027166098     -0.08076698957392
  N   3.21828904853991     -2.48335969237832     -0.04928667515419
  C   4.30758352646539     -3.38476411309944      0.04445356291057
  O   4.17755907338068     -4.58366765789288      0.10181744715055
  C   5.50073774450767     -2.53776218763643      0.05449168320996
  C   5.10767178433362     -1.23612668843653     -0.03067816019139
  C   5.76572587188955      0.04309939576231     -0.05233667653193
  N   5.09973762597269      1.16765762457360     -0.08796481133542
  N   3.77623695138672      1.12953541600414     -0.08700130467770
  C   7.21622404289735      0.14852942200224     -0.01673961781051
  C   7.99166564693622      1.11946412761631      0.49993376229138
  N   9.31050937505607      0.75064633853232      0.29332619832351
  C   9.39173065712283     -0.46870439812936     -0.36929300750305
  N   10.38390892371517     -1.15698746272667     -0.77665218080993
  N   8.06876359018166     -0.83374716097723     -0.52019308019229
  H   2.25782400541286     -2.78569726612268     -0.04929436283615
  H   6.49308813042161     -2.94191668525783      0.15720421959468
  H   3.32286119421198      2.02826003151712     -0.13002729095389
  H   7.70528757712710      2.02004593587447      1.01150773490566
  H   10.11780918117489      1.26519341578251      0.59308383635123
  H   11.26921126728724     -0.70642441934419     -0.57665746303773
  H   7.80478871798058     -1.60168605848698     -1.11282870025190
