22
Coordinates from ORCA-job 15086optt
  Br  1.00193765119313     -0.02357963741728     -0.38896085096926
  C   2.87183332818758     -0.10756650297938     -0.21692304854864
  C   3.51411469873277     -1.29286689725329     -0.16110082374416
  N   2.84715437673458     -2.50913534883322     -0.19983061708311
  C   3.51049512849228     -3.56996906725264      0.01509287274975
  O   4.83931840513995     -3.63768421168063      0.29014133906782
  C   5.53887607276107     -2.47795251924551      0.23035476062834
  C   4.96109246501714     -1.30200588435053     -0.03130409286828
  C   5.70802924656543     -0.01944303892023     -0.15810603228902
  N   6.95508707650937      0.08606175956973     -0.38402296089203
  N   4.96022866191862      1.13965905793268     -0.01928196996484
  C   3.67482967574314      1.11183379792098     -0.07099134394309
  N   2.98936629267298      2.29982210244577      0.02921836825157
  C   3.58075841319338      3.54894198602598      0.13989283369735
  O   2.92379668316592      4.54958727400643      0.22682088027790
  C   2.90319366445699     -4.86552889420782     -0.00246347835275
  C   2.40263987066360     -5.95088947229931     -0.01424340895293
  H   6.59034032481840     -2.63406501627009      0.42368058525910
  H   7.39067558042801     -0.82288504056831     -0.52045822092741
  H   1.97880942853692      2.28801201902025      0.00907346865240
  H   4.67422849979240      3.51166883965264      0.13578252633801
  H   1.94819445527630     -6.91401530529623     -0.02737078638669
