23
Coordinates from ORCA-job 15093optt
  Br  1.76348831981646     -0.68701170247769     -1.46235564522495
  C   3.32157455366375     -0.24640816903393     -0.52502308935716
  C   3.79567260888318      1.01392553950027     -0.35615118552267
  N   3.33574714846487      2.29396057068805     -0.68332869288651
  C   4.46057326455610      3.23112605951623     -0.56079147201669
  O   4.34891665784084      4.39465364119672     -0.84222521401609
  C   5.58253595972056      2.46582354986132     -0.07795086040808
  C   5.17159290639923      1.17943810223245      0.06074967441739
  N   5.82979400452849      0.04847176327731      0.44460234218170
  C   5.20477575123643     -1.16081611447232      0.39282801879180
  N   4.02508775066938     -1.33513513017658     -0.07356869242594
  S   1.84252813061619      2.88921685951261     -0.14826835099620
  O   0.97324771969158      1.77150159256884     -0.00878141278161
  O   2.07239795978823      3.75306798207922      0.96109204175834
  C   1.36342437778724      3.90263169076334     -1.54277714390838
  C   1.19247432897970      3.12551426110577     -2.75348188269434
  C   1.06651833150721      2.47048557475680     -3.74552669386378
  H   6.55639415506223      2.88918912854449      0.09648987324914
  H   6.78698927673842      0.10561557781166      0.75662345752271
  H   5.77122712066024     -2.00537469616968      0.76551424640157
  H   2.15026410315059      4.65357153193644     -1.63403692747129
  H   0.43553851551206      4.37854534082816     -1.21896112621064
  H   0.95523705472692      1.88600704615049     -4.62767126453833
