22
Coordinates from ORCA-job 15094optt
  Br  1.10842250096213     -0.15199923202717      1.11054783514781
  C   2.89419477716485     -0.01515417103820      0.55439162838519
  C   3.60647622480152     -1.08702404970157      0.20420844012668
  N   3.22142317471759     -2.40630409739020      0.14497646645644
  C   4.29304204699016     -3.22844027023270     -0.20476315474373
  O   4.23604324990352     -4.42051327246934     -0.34483853175077
  C   5.45754726258390     -2.32190447247985     -0.36208028107591
  C   5.03532032622463     -1.06821064376770     -0.13970316323917
  N   5.73258943142384      0.14779075682583     -0.10586679058372
  C   7.10707343664648      0.14157271368945      0.20030487686502
  O   7.75243491074356     -0.86270511007588      0.15862529313512
  C   7.70660260762390      1.46933327745920      0.67508339211119
  C   8.87069933863346      1.21955826822273      1.51928518402768
  N   9.78662047102568      1.06508225344064      2.18664467654277
  C   5.03189327085759      1.35972814814101     -0.35213274359261
  N   5.45035558812940      2.31024754883674     -1.05899949052896
  S   3.49245542822427      1.62673041788188      0.48716574630128
  H   2.28650439486977     -2.74538885386443      0.30159801509236
  H   6.44351190735921     -2.67105296329905     -0.60499879807749
  H   6.97686873218085      2.06691838095633      1.22187629810471
  H   8.03505931932168      2.06274951893502     -0.17961113590935
  H   6.33786159961188      2.10498585195725     -1.51471376279455
