21
Coordinates from ORCA-job 15108optt
  Br  1.04309725012527     -0.70728429202366      0.39635886840716
  C   2.86254725128360     -0.28901895526324      0.29294650125734
  C   3.32130779769977      0.99462749668039      0.19307483497395
  N   2.44554140007253      2.04805026558064      0.16671589862666
  C   2.61650932226343      3.30231339623030      0.13294402443433
  O   3.73012926824728      4.07550778101800      0.09796174649668
  C   4.99762460114987      3.58324072268531      0.00565812884604
  C   5.40933112844719      2.32756432648527      0.00927853485478
  N   4.67577742876613      1.14336203153716      0.12094813131690
  C   5.57829054270865      0.06702514635040      0.12831885177507
  C   6.86857627745265      0.49049188033112      0.01423857155040
  C   6.87205673183088      1.93065532232535     -0.07960856795827
  O   7.77795611607972      2.72599911533830     -0.19825583247796
  N   5.09866128217386     -1.20816229914329      0.24394146476743
  C   3.81899044325987     -1.35801026861125      0.32206723881257
  C   1.46049205674723      4.15583031143237      0.13151403423997
  C   0.50361010298330      4.87379708178363      0.12953947899871
  H   5.73315473068905      4.37033061847177     -0.08214571658060
  H   7.73181357996974     -0.15024839599671     -0.00369213733382
  H   3.44019400311577     -2.37139019467880      0.41595227456835
  H   -0.35466131506583      5.50431890946694      0.12724367042430
