28
Coordinates from ORCA-job 15114optt
  Br  1.18046519384373      0.01135661118326     -0.28944840330506
  C   3.06194589528572      0.04984462430707     -0.20333276186821
  C   3.71343667937521      1.24288158904024      0.12773816347989
  N   2.91529815424014      2.33664926658251      0.46434323718877
  C   3.14537737037159      3.57372882968351      0.45787930780921
  O   4.20878598074792      4.30809983474182      0.08488005155276
  C   5.37138430397472      3.66222228926808     -0.41534696442706
  C   5.84015898391567      2.52912562153943      0.49303093708791
  C   5.12566165545900      1.24760170577081      0.18773415561414
  C   5.81960818740010      0.08890720912617     -0.08087056665701
  C   7.30390853658318     -0.19724859043655     -0.13177939558837
  C   7.33697664310875     -1.73773391041319     -0.13174824422532
  N   6.03678144395530     -2.10265834261533     -0.70276957189005
  C   5.14915386790328     -1.08343797347761     -0.42709913023802
  C   3.75864816711691     -1.13315053161540     -0.49107094504429
  C   3.13121969242600     -2.37129062610665     -0.80907103953340
  C   2.67716908657291     -3.45290377764719     -1.06293736465119
  H   2.36818533414894      4.24816068470452      0.80748771296419
  H   6.11745296803448      4.45207986989249     -0.47661774842339
  H   5.17452632698271      3.28806806050103     -1.42269553920785
  H   5.67424021782998      2.83490585281187      1.53055862617780
  H   6.91371145821612      2.39176833147509      0.36352347648464
  H   7.86337189834129      0.22106709783468      0.70361691192447
  H   7.73401578562908      0.19664448064391     -1.05744605586098
  H   7.43124130692765     -2.11027575140157      0.89404337394154
  H   8.15297315996799     -2.14295405641971     -0.72674413690994
  H   5.70236009208825     -3.04910316702538     -0.59444962160766
  H   2.24094160955329     -4.39635523194793     -1.28840846478750
