20
Coordinates from ORCA-job 15110optt
  Br  1.88748489223906      0.49286439323322      0.00241797325475
  C   3.72167110583601      0.18269741242748     -0.20318393363029
  C   4.13090523228999     -0.83017043812464     -1.01907282914700
  N   3.42752491650525     -1.79032727067171     -1.70817641572403
  C   4.03428081939856     -2.91002640694042     -2.29760649433867
  O   3.35820922376925     -3.71014998776717     -2.89386623334102
  C   5.51601739860639     -3.13691596862903     -2.13076035733279
  C   6.27083429211350     -2.19371790378017     -1.54286945900645
  N   7.60313106780082     -2.12932130955356     -1.05461500353777
  C   7.61505957387687     -1.00718258127067     -0.36887408088759
  S   8.46423355623168     -0.14650118347082      0.91246628866126
  N   7.11434263929986      0.85014266223159      1.34642125361872
  C   6.12323658051002      0.66445358993749      0.53640945197982
  C   6.39768559788276     -0.27265858645785     -0.46268425745039
  C   5.53217846622627     -1.01676262565653     -1.12539257646605
  C   4.66476112366199      1.05560131860819      0.60716843549851
  N   4.19560561661198      2.00607242235204      1.29756275681312
  H   2.41697625785158     -1.76919799287400     -1.75129607664124
  H   5.86559167773597     -4.10025770816653     -2.47675350298736
  H   4.94326996155212      2.48235816457308      1.80470506066447
