22
Coordinates from ORCA-job 15117optt
  Br  0.97505493650049     -0.21962225342518     -0.33032017899273
  C   2.84826057789342     -0.12668904681460     -0.11630879754383
  C   3.60961396262636     -1.24131086110697     -0.14702274990653
  N   3.03228662372146     -2.50413176422154     -0.35353197975750
  C   3.56305789983310     -3.71799532683685     -0.03007571172520
  O   2.95201874643409     -4.74894473036855     -0.12121729583793
  C   4.99989899591974     -3.64983915472104      0.51559132739660
  C   5.78116984536499     -2.48824783570087     -0.10397447027948
  C   5.04510335626782     -1.18201592201380      0.01726614108067
  C   5.73775244571766     -0.04896179744603      0.23751618099374
  C   5.19424307554623      1.29256421560504      0.32761501509888
  O   5.83367015157792      2.28901056910281      0.53322608295745
  S   3.42299027686882      1.48138682222650      0.09921239773023
  C   4.85113023103700     -3.49624397889932      2.04892428571943
  O   5.21970481683312     -2.52247504654447      2.62646504901848
  C   5.67397301854167     -4.92126970760066      0.26359297769271
  N   6.26205791089482     -5.88820396948897      0.09188247031828
  H   2.06081854165877     -2.53791505192280     -0.63565840465855
  H   5.93281484297615     -2.71359117764302     -1.16334867627750
  H   6.75982574322193     -2.41206472621159      0.36608658162418
  H   6.81181065541291     -0.09405433421566      0.37370181976615
  H   4.36174334515145     -4.34938492175242      2.54837793558245
