24
Coordinates from ORCA-job 15116optt
  Br  1.11643346625332     -0.05241061395217     -0.46250049588901
  C   2.99244310925959     -0.02867431997771     -0.23638190053692
  C   3.63783470890049      1.17628242107295      0.08357369790648
  N   2.85766441353476      2.30677629580464      0.27010740480129
  C   3.15480097231348      3.52971828238448      0.24549821447042
  O   4.28748608547913      4.19988109676730     -0.00638917982253
  C   5.45922812057352      3.48391658115745     -0.38817871084537
  C   5.79307123973108      2.35220586706083      0.57936549836514
  C   5.02839066469003      1.10693606716024      0.25399975767881
  C   5.67564068311960     -0.09978852839638      0.07611584218632
  C   4.92290563979642     -1.22152969421000     -0.26717447706114
  N   5.54560225136996     -2.44181388943624     -0.46898815535718
  C   4.93505457241798     -3.61480065825433     -0.85907622538695
  O   5.56158458558563     -4.62330608300623     -1.04575751005318
  N   3.60553741041878     -1.17311413224420     -0.41833469846290
  C   2.09076893473567      4.48356427247119      0.53433622111670
  N   1.25829634640561      5.23402388160250      0.76720642612991
  H   6.24172366715601      4.23819371074015     -0.39244482678883
  H   5.33138630036687      3.10141665773079     -1.40292958157691
  H   5.56712473470676      2.68899598241802      1.59494982946021
  H   6.86290801614268      2.14809157872516      0.53553095517426
  H   6.74910922376382     -0.17353140933530      0.19651343403775
  H   6.54758659594256     -2.49737118028110     -0.35654251433700
  H   3.85041825733621     -3.52266218600206     -0.97549900520938
