22
Coordinates from ORCA-job 15112optt
  Br  0.97038347940781      0.17495624005516      0.04927440500633
  C   2.83975734032674      0.05382038061186      0.02256316207606
  C   3.47825554552464     -1.15469805626096      0.10260367106821
  N   2.76709486100120     -2.32934582290653      0.31468550941123
  C   2.80648826675876     -3.58183745620910     -0.30783616221190
  O   1.88039081327230     -4.33003451894736     -0.16897019679428
  C   4.03927037047551     -3.92975036306427     -1.11265220150651
  C   5.26559755802015     -3.63530362396366     -0.32998393762418
  N   6.18308209459505     -4.51335244209919     -0.05265804613178
  O   7.13684231251385     -3.84677025521909      0.67123135867657
  C   6.77657566068841     -2.57608064742853      0.83876200331346
  C   5.58635485623891     -2.37581767572426      0.22951744312487
  N   4.85234001303933     -1.18922832715763      0.08206735594113
  N   5.61047591908465     -0.07993359566342     -0.00197843071099
  C   5.03393771316079      1.06411221968700     -0.05976214642262
  C   3.58283255010579      1.29178501766553     -0.05781015749136
  O   3.10115985673685      2.40415555372008     -0.13011456757018
  H   1.84454685726853     -2.16177610736744      0.70272572114580
  H   4.03483319070929     -3.32593120174000     -2.02614221047458
  H   3.98410520758895     -4.98049473339192     -1.38188826523564
  H   7.44872931190107     -1.93251038082968      1.37954521770837
  H   5.68194622158138      1.93003579623342     -0.11917952529801
