28
Coordinates from ORCA-job 15115optt
  Br  1.34479222528873      0.05729259732572      0.58838355719445
  C   3.19432525370167     -0.12194013790235      0.33053686624750
  C   3.79632466882759     -1.31063564789392      0.09913489741049
  N   3.08565011760551     -2.51208001158015      0.02082529602621
  C   3.62627103356328     -3.75821802966766      0.23545109782621
  O   2.94099380345767     -4.75159509257944      0.23198794728509
  C   5.11872173222824     -3.75274188993134      0.46349376718477
  C   5.80915830246278     -2.68460118820578     -0.38209136835551
  C   5.22441205596771     -1.32420433360699     -0.10363298553913
  C   5.94357671164186     -0.17177398749050     -0.05134208027176
  C   7.43677837631481     -0.04487622836398     -0.21705096340084
  N   8.09507853590761      0.35620252430513      1.01455387326437
  C   8.27709959111214     -0.56271471622448      2.01818239284133
  N   8.48080413041023     -0.37017946801045      3.25351638497036
  C   5.29013644457219      1.10289020928105      0.21840778349780
  O   5.86989513034326      2.17444985492285      0.30765886442188
  N   3.91861124560234      1.03300048428808      0.37011247229248
  H   2.07893526462349     -2.48123164413468     -0.06064030486586
  H   5.48957093366147     -4.75052966230630      0.24213830454789
  H   5.29272930825574     -3.55761546136816      1.52599996536294
  H   5.66100311173128     -2.91321356903917     -1.44259607615431
  H   6.87987737229505     -2.69873750303529     -0.19684943322496
  H   7.63773272091942      0.72007936812895     -0.96718017630349
  H   7.88472611615995     -0.97171463650233     -0.56834651069346
  H   7.88575509275136      1.30520993326883      1.29800842459564
  H   8.27864741038710     -1.59220050439514      1.65100322229256
  H   8.45626181704175      0.62248125634522      3.49021648932562
  H   3.45213149316571      1.91119748437229      0.55211829222170
