25
Coordinates from ORCA-job 15120optt
  Br  1.01926893561960     -0.15928330727219      0.39506006740272
  C   2.87512546272861      0.07311767023018      0.11301704378904
  C   3.45163440158666      1.32260792897077     -0.00951005194189
  N   2.91399153618148      2.61747066570610     -0.00907481007828
  C   1.69678113527273      3.05116423745636     -0.47049203617365
  O   1.41768803751237      4.22251210946606     -0.53787265738048
  C   3.99929206535412      3.59970458954414      0.18277934705933
  C   5.29237909634775      2.83570003304581     -0.11456684043128
  C   4.85157006990745      1.39792088297749     -0.08031144268502
  N   5.65073177250543      0.36047271965198     -0.10156928638225
  C   5.07991300456118     -0.84554824963581     -0.04057817860222
  C   3.71293218810122     -1.05029696597764      0.08074965006439
  C   3.12408789668890     -2.43674941428530      0.20617674173345
  C   4.10834033511091     -3.50725312940847      0.07046767653800
  N   4.87877816378371     -4.34756169838947     -0.03655773250904
  C   3.93062565348698      4.15277571643604      1.60136328845528
  O   4.89962254714107      4.38861699608502      2.26066896867317
  H   1.01766874888024      2.24995777748591     -0.77580138174914
  H   3.81500627325239      4.43932242714045     -0.49061911244155
  H   6.05041038003269      3.04403262724948      0.63939526315184
  H   5.70277138652457      3.08544545457382     -1.09334509805387
  H   5.74777103371843     -1.69830800523137     -0.07261994624315
  H   2.35091770749921     -2.58831827800131     -0.55062787705592
  H   2.63095986808101     -2.54950017146258      1.17519818727812
  H   2.90673230012125      4.33099738364452      1.97667021758240
