23
Coordinates from ORCA-job 15134optt
  Br  6.09632134584063     -0.65887280249515     -0.49869220997150
  C   5.10398541333058     -1.86236128202367      0.52867434325271
  C   4.45157912373111     -1.51956012418522      1.64770084593148
  N   4.69983486572792     -0.47230460684501      2.49402525718073
  C   5.96239073968158     -0.16362982020190      3.06389222023589
  O   6.03418518973477      0.73432864588060      3.85654571457335
  C   7.13139760025371     -0.92924905583518      2.54418598010787
  C   7.12743223341967     -2.23895950447226      2.30175089879609
  C   8.04366381416357     -2.88883741914511      1.36806191332644
  C   7.60455412195548     -3.71135929919283      0.39815044301060
  C   6.21418155163371     -4.09724463935687      0.16176335484512
  C   5.12839319511064     -3.31128076209919      0.28036531836592
  N   3.84446592706141     -3.88832604047597      0.38278935343472
  C   3.13524536622499     -3.40167189174367      1.30342979895502
  O   3.52316907750802     -2.41294668297614      2.15876210299163
  C   1.80086780565058     -3.87835301712317      1.58084852274894
  N   0.74357451989303     -4.25159207836189      1.81089405716753
  H   3.92325431900705     -0.03771506592710      2.97695062795556
  H   7.95162765355208     -0.29975564611621      2.21647732958717
  H   6.30008587143487     -2.84984209129009      2.65055226167577
  H   9.09631957941365     -2.63167690750230      1.40678618481922
  H   8.34477561966534     -4.16721073260462     -0.25098226366000
  H   6.02169506600555     -5.13557917590704     -0.08893205533027
