22
Coordinates from ORCA-job 15132optt
  Br  4.21997950898438      1.58763351333934      3.53663532987221
  C   4.40997141104399      0.43921482918433      2.08549115724942
  C   3.54444536260546      0.42791934189745      1.05033029533125
  N   2.36570116384814      1.14992548846675      1.11116712380880
  C   1.72899931038751      1.83261978926784      0.26671283555795
  O   2.12861009874393      2.26026247089864     -0.95522365143573
  C   1.30531854508837      1.87367423496924     -2.02298899494846
  C   1.11713533431612      0.58866760274070     -2.31819184715802
  C   1.80331483752765     -0.39270880643432     -1.45840425811624
  C   3.11572201695671     -0.26162109084504     -1.30718354389658
  C   3.85246083451786     -0.50252539951992     -0.05486543207378
  N   4.80733276362232     -1.34979537711468     -0.02068257444846
  O   5.59210140567956     -1.40315784318126      1.09667658109272
  C   5.52767999668329     -0.50738623038187      2.13440753405523
  O   6.33876294380249     -0.58993862786658      3.00295150905875
  C   0.35908498549346      2.31359845952163      0.70885360104216
  O   -0.33881307813486      2.98543663504813      0.01127897998685
  H   0.86343149781018      2.71053953131307     -2.54229344507590
  H   0.43843010323713      0.32599048873199     -3.11881849461901
  H   1.21668465724873     -1.01568384300183     -0.78901455717631
  H   3.65319181164902      0.37042778045999     -2.00774050807335
  H   0.08545448888852      1.98990705250639      1.72490235996651
