25
Coordinates from ORCA-job 15135optt
  Br  1.05441542044453      0.14272947302808      0.51031363572123
  C   2.92524956003605      0.01485923198234      0.28236351345020
  C   3.60211341371327     -1.16262176650523      0.15223749622737
  N   2.97775282212483     -2.39659471085322     -0.08267922668263
  C   1.80098854137432     -2.48992866185376     -0.88155611839668
  O   1.17581344169312     -3.49962019165719     -0.97765011441177
  C   3.60822925159973     -3.58018596674212      0.20834683410378
  C   4.91735390729476     -3.61224636955086      0.52435101102116
  C   5.67678860234001     -2.40773102826452      0.48908164299963
  C   7.17392918117549     -2.50698458003256      0.69956747898976
  C   7.56906467887941     -2.07900522122613      2.04041040001852
  C   7.86888415668832     -1.71959962651490      3.14164825994314
  C   5.05065708709091     -1.20473430529871      0.29716023077710
  C   5.75084392070418      0.05256575653231      0.36532481168263
  C   5.09593993672764      1.22115361714551      0.37931907955192
  C   3.62997306102535      1.30036180823872      0.37061113454821
  O   3.04904402682080      2.36595105808069      0.45125121426140
  H   1.59430251254476     -1.57100841638750     -1.43307926020897
  H   2.98694925858423     -4.45598329517209      0.09398287458228
  H   5.39428150552260     -4.55812170762823      0.73465736786923
  H   7.70096043558577     -1.90671554923432     -0.04459918429713
  H   7.48664989219935     -3.54086259552328      0.54696859374864
  H   8.13784179590976     -1.40295352484077      4.12120860906494
  H   6.82904737986019      0.03868934445474      0.45326454398513
  H   5.61392621006054      2.16858722782299      0.44949517145088
