26
Coordinates from ORCA-job 15144optt
  Br  0.50413255919732      0.85525897356638      2.25511577164635
  C   1.65952295433354      1.04032315437559      0.77482139557630
  C   2.91397355738998      1.63424595779097      0.98755594069731
  N   3.19841043129043      2.39460131453643      2.16159154857876
  C   2.55338973281748      3.60777051857427      2.39007157840857
  O   2.51503552428137      4.12490470929550      3.47633704890694
  C   1.89114616175352      4.08378937476665      1.13654592019498
  C   0.56282763337168      4.04815879395014      1.03207081279871
  C   -0.01479274437093      3.62652788815490     -0.24148849537172
  C   -0.96244986445526      2.68608690302040     -0.23479690122690
  C   -1.13767047756941      1.71201284787805     -1.33097363408159
  N   -1.77524497509325      1.80774385331437     -2.41029515150591
  S   -0.36597460840384      0.10401038703044     -0.96718324349160
  C   1.27854972352535      0.62225230049966     -0.50460492510062
  C   2.23844854946518      0.63826893438217     -1.51723193184748
  C   3.52831789935405      1.08310345100358     -1.27781134223883
  C   3.85025316130774      1.61018166267205     -0.03755881455641
  H   3.51938266934441      1.92741849162974      2.99918562769465
  H   2.49300703025208      4.06747816448732      0.23392727758850
  H   -0.04952475139558      3.96535241179034      1.92426006116614
  H   0.55771384517045      3.81758375451335     -1.14457614134521
  H   -1.45086514826914      2.42217329197190      0.69748791677523
  H   -2.24929886644262      2.71168197810425     -2.46152636777290
  H   1.94760238085386      0.30090695956953     -2.50306159335695
  H   4.26245982605921      1.06882243169166     -2.07171882143156
  H   4.81864779623237      2.05734149143033      0.14685646329523
