24
Coordinates from ORCA-job 15148optt
  Br  1.38134576158590     -0.03038811200577     -0.83184927303370
  C   3.16700470532207     -0.13724950052078     -0.33729686464866
  C   3.87972351304477     -1.28446039343646     -0.24047020803633
  N   3.54636923373058     -2.58517563316002     -0.43815127507691
  C   4.69675352127604     -3.19713637166344     -0.19914473908674
  O   4.85866128304899     -4.50154619635651     -0.25708266605921
  C   3.69436367367175     -5.28800476346839     -0.51983414285647
  C   3.27064621512109     -5.24910462487680     -1.98374061782647
  C   4.27495181233435     -5.79964367456273     -2.88790098392126
  C   5.09830552264372     -6.26085337670458     -3.62468863013524
  N   5.78490566155767     -2.42856161918908      0.14252938028900
  C   5.28316844761496     -1.21622029019741      0.12626091926696
  C   5.84988181767235      0.04993201429346      0.40066904707389
  C   5.03401653249001      1.12372613069086      0.29021234933895
  O   3.73380202149463      1.04017006861794     -0.07358635724970
  C   5.43892290557672      2.52743235129150      0.55112013795538
  O   6.54201228482326      2.82183421473625      0.91238217870029
  H   2.87629106763417     -4.93143859110435      0.10600993359919
  H   3.97480576220780     -6.29737773218865     -0.22942013695998
  H   3.03289114584547     -4.22210390050912     -2.26165449645241
  H   2.34778028880187     -5.82800202638226     -2.07290522767978
  H   5.83002166384778     -6.66412340031053     -4.28269389450556
  H   6.88018752740770      0.19895669250674      0.69188258390146
  H   4.64518763124626      3.27633873450018      0.38935298340331
