23
Coordinates from ORCA-job 15140optt
  Br  0.96796667205399      0.13962633838582     -0.02316682611247
  C   2.82601758423781     -0.06335601943615     -0.02753700927463
  C   3.47997538845636     -1.24736059819461     -0.02744881702123
  N   3.08413783549131     -2.57608501586567     -0.02547918596245
  C   1.80508524940493     -3.14835425152753     -0.02603696442333
  O   1.66632818463861     -4.33741561059711     -0.02445001821241
  C   4.23211820581709     -3.39825482656376     -0.02467874156034
  C   5.31893513602837     -2.63277860226091     -0.02684119870796
  C   6.76331458360413     -3.01570831178508     -0.02703907863049
  C   6.91815000990293     -4.46707885731005     -0.02298013220622
  C   7.03639465108510     -5.65732672070122     -0.01945737981019
  N   4.87366046014302     -1.28886739025498     -0.02901539024053
  C   5.66942570270816     -0.15868909112141     -0.03116263988209
  O   6.86227784741411     -0.18399667113801     -0.03228497885196
  O   4.99449899715387      1.00198169739366     -0.03203220515167
  C   3.60420891501319      1.16124161296687     -0.03046031344378
  N   3.11959706015995      2.31783398020387     -0.03159116556769
  H   0.98890956426670     -2.42660893770848     -0.02836700341353
  H   4.13242213849094     -4.46784982091231     -0.02270215140180
  H   7.26225371452944     -2.58030886098202      0.84087554240478
  H   7.26057650268624     -2.58538855269703     -0.89847817519703
  H   7.15122704455984     -6.71519779410359     -0.01615646846225
  H   3.84851855215388      3.02694230420976     -0.03350969887072
