31
Coordinates from ORCA-job 15149optt
  Br  1.97574944369904      0.40727346992115     -3.55828417150941
  C   2.43943126947211      0.65949849205393     -1.75243433707114
  C   3.05079374689914      1.79305041018636     -1.31606207038758
  N   2.95520753924923      3.07401836074063     -1.90150122084271
  C   1.61582691411093      3.56641127813925     -1.76178034387404
  O   0.69210737228704      3.02628451061126     -2.30206163760807
  C   1.40943410162238      4.67114810573893     -0.75242063231482
  C   1.10526759723467      4.07133195713987      0.64818788437569
  C   -0.21879937171484      3.28930514368206      0.78882290963258
  C   -0.15755984881321      1.76800214749907      0.62603713939911
  N   0.40389416968246      1.08752474503696      1.80535361140577
  C   1.04975790083738     -0.21010202542469      1.57363761179187
  C   2.11908929464867     -0.03622961773239      0.51841890379276
  N   3.10766121099324      0.84770442008479      0.86691616235919
  C   3.60909596168694      1.82131755106978      0.03596904199696
  O   4.37383007418509      2.68216115973866      0.44247480987933
  C   1.91804111525123     -0.27458901621132     -0.79802136212259
  H   3.62877182320996      3.68218999074060     -1.44577528548015
  H   0.56170788846793      5.27466694317367     -1.07732426315721
  H   2.29255688137432      5.30719212758482     -0.67735778596222
  H   1.07695536071772      4.92363131921418      1.32886055575473
  H   1.95850748742001      3.47087263206150      0.97597170644035
  H   -0.92930644276167      3.66778237891283      0.05108473802819
  H   -0.64914619878295      3.50325661744335      1.77089658325958
  H   -1.17349746351226      1.39239785046884      0.47970087873004
  H   0.38777480496645      1.53535806043747     -0.28970202989594
  H   1.04278702167077      1.70764787612234      2.28882179973596
  H   1.45061583605534     -0.56461942894105      2.52502558071150
  H   0.31027507379036     -0.93147973154645      1.22620181734366
  H   3.33591223283062      0.98417370367316      1.84371751742165
  H   1.15225720322185     -0.96618143161959     -1.11737411183303
