23
Coordinates from ORCA-job 15147optt
  Br  1.16058681308629     -0.30452500708301     -0.60845521242427
  C   3.00394649351062     -0.07897097247406     -0.32621793326519
  C   3.77298922436636     -1.17810751543545     -0.16603459249838
  N   3.40711086779693     -2.50508915357951     -0.16485058819896
  C   4.48433528626531     -3.34030887279595      0.01613588715057
  O   4.47669981044730     -4.53638836643217      0.04976652327122
  C   5.70999740351806     -2.43157500728970      0.12214338374891
  C   6.67715846136829     -2.74811092878595     -1.03170944693793
  C   6.03533749618964     -2.54849318916119     -2.32619048372389
  C   5.46342325504936     -2.37002159725546     -3.36193712049099
  N   5.11888175214067     -1.10598663854355      0.05414098041308
  C   5.82393587897104      0.08696131667891      0.22995346406744
  N   7.05504388072604      0.16188478582069      0.54717738967898
  C   4.99621879661283      1.28008658994708      0.01222850474931
  Br  5.90159331544372      2.90999062106684      0.16577071121257
  C   3.66681013916450      1.19449340790634     -0.25477415276421
  Br  2.63166405711414      2.73679985999090     -0.52711580951753
  H   2.46353223439782     -2.82173726824511     -0.32940150571162
  H   6.20492161314432     -2.59106767817223      1.08340766465351
  H   6.97810229794441     -3.79181732675864     -0.91873876884761
  H   7.57094344580974     -2.12763884423954     -0.96288662684513
  H   4.97288824437768     -2.22078132817070     -4.29443476731715
  H   7.48487923255486     -0.74459688698852      0.69702249959728
