22
Coordinates from ORCA-job 15152optt
  Br  1.96532127066320     -0.79105473173133      0.31464061506656
  C   3.72965470796792     -0.98281097172238     -0.28661088312436
  C   4.58803688376462      0.05895615587807     -0.35140443468093
  N   4.43329700820281      1.34961978710655      0.09231526166235
  C   5.48034421330023      2.30075672418913     -0.12659600001994
  O   5.81069936174769      2.58525076957577     -1.23497975358426
  C   6.20855227926903      2.79814278085165      1.09795383643112
  C   7.30197703179500      2.11836869308705      1.46984822202233
  C   7.68055337045910      0.91935213778918      0.67966587632229
  C   7.55210065980970     -0.31278590770441      1.16889311356834
  N   7.27626902754017     -1.48714291313611      0.44359896806307
  C   6.30609294190791     -1.43190863511081     -0.36324852650418
  O   5.82593520247548     -0.20423265344126     -0.82157686349154
  N   5.53291520447064     -2.50806937524417     -0.75086307472405
  C   4.26907256767365     -2.26942936610307     -0.67971722976746
  C   8.04277246309764      2.49981757240887      2.63924682486264
  N   8.64154338424389      2.77511502971552      3.57853567806106
  H   3.82804592485974      1.45983106813024      0.89581899920851
  H   5.86613236259709      3.68688528627801      1.61297656685527
  H   7.76379146705824      1.07570002246797     -0.38614738261875
  H   7.51170377312443     -0.48066805746744      2.24219189688375
  H   3.57918889397177     -3.07869341581705     -0.89954171049183
