27
Coordinates from ORCA-job 15157optt
  Br  1.16097182479269     -0.28050691566067      0.39456729108911
  C   3.02605423382309     -0.12892493036154      0.13323538706464
  C   3.56475095240182      1.09815039409996     -0.26802530110949
  N   2.73951800836272      2.18287161627458     -0.56460698203004
  C   2.97026699790286      3.30790802754181     -0.05169072024722
  O   3.90259299162464      3.54865790759816      0.90306734304837
  C   5.12058532741323      4.16639338438031      0.46018458252399
  C   5.64808077705755      4.98472505732239      1.62037989601168
  C   7.08686853641081      5.44132656585299      1.43955961214679
  C   7.31369610196161      6.35687423146795      0.27055987918043
  O   6.45683595521977      6.72014068391155     -0.48875436337137
  O   6.05983235834692      3.20102968933422      0.13500070980288
  C   5.70185505336620      2.33140454324614     -0.92766019901152
  C   4.95164382900499      1.10983196716812     -0.44557777135752
  N   5.69160212070645      0.02375232026453     -0.22577566145910
  C   5.06539400441547     -1.06847792999274      0.17413167692915
  N   3.75391304978531     -1.19346042839632      0.36244095303876
  H   2.36587295357688      4.16653548282563     -0.33820765494635
  H   4.89318227173420      4.78535705443607     -0.41485117793180
  H   5.57212784078286      4.36212400400334      2.51304529588560
  H   4.98609851073523      5.84141306196295      1.75038873919437
  H   7.75597495853444      4.58499973158472      1.31405964067663
  H   7.44088295311371      5.96590752669041      2.33283951831212
  H   8.35738244904622      6.69873939383899      0.13445430629869
  H   6.63389348297079      1.98400626087864     -1.36629602764032
  H   5.12277290760139      2.87547131738806     -1.68161701115403
  H   5.66834954930808     -1.94825001766026      0.36314803905554
