25
Coordinates from ORCA-job 15165optt
  Br  0.81279654755537     -0.46532951515205      1.30244551473430
  C   2.28829525697930     -0.54358713009209      0.14922965161499
  C   2.90027303509612      0.58699253847794     -0.24172223281116
  N   4.01271720242624      0.49803909056716     -1.05826098231753
  C   4.74509032222708     -0.64848421702854     -1.07245875590682
  O   6.03392370755276     -0.49156433415753     -1.50264534179654
  C   6.73372703555116      0.59224173184201     -1.04838194842192
  C   6.55659174597313      1.28967573356917      0.07186602109123
  C   5.72416548265332      0.98235248538775      1.27842399444144
  N   4.64556053362978      1.47896417904402      1.69282585506749
  C   3.72519576618140      2.34989628591152      1.14215537632490
  C   2.74156338714644      1.95851212397483      0.30443933957903
  C   1.63852385618535      2.78953905717639     -0.03192070002739
  C   0.70253226618514      3.47711611265228     -0.33341022157297
  C   4.21550834155087     -1.82019835245117     -0.69523642400863
  C   2.82736529646501     -1.87228942843839     -0.21978998009980
  N   2.14756522254848     -2.92924135099727     -0.00176076273725
  H   4.47579056063021      1.36461987752111     -1.27867524030294
  H   7.50996590916528      0.85658590217076     -1.75335795865455
  H   7.25045012135511      2.11228070334792      0.21073482021522
  H   6.19444437069759      0.26447433180553      1.95434700192411
  H   3.69838137449912      3.33309628430340      1.59902734507354
  H   -0.13483000266916      4.07967509142828     -0.59223592787347
  H   4.81784228919876     -2.71692667924024     -0.71009094681639
  H   2.67456037121603     -3.75844052162282     -0.26954749671890
