24
Coordinates from ORCA-job 15174optt
  Br  4.59278173794391     -3.82868819993664     -0.40396015792938
  C   4.62785190275737     -2.01656529739712     -0.95293620697099
  C   4.58562195805932     -1.69699953451040     -2.26418961264572
  N   4.94627142070995     -2.60024479200297     -3.31971477645068
  C   6.37005791917584     -2.25626359970251     -3.45116603433142
  O   6.73055027505263     -1.47503455762305     -4.27729899072419
  C   7.26301722880904     -2.82684362607062     -2.38811919671448
  C   7.87041938642948     -2.13545275701827     -1.42045242341809
  C   7.91174888771607     -0.65865696964189     -1.19685055310476
  N   8.00877132299769      0.23450378187218     -2.08842849573844
  C   7.96423113966311     -0.14859794752073      0.23599498250980
  N   7.17834546148424     -0.45554714284142      1.18352356504195
  C   6.15358810198272     -1.35106936495122      0.82085716276907
  C   5.15980637472805     -1.02991682738869     -0.02726591080604
  S   4.75016009502174      0.65862765410321     -0.35296765159926
  N   4.44950859158692      0.73183023802986     -1.97647319308705
  C   4.45434613944668     -0.30484523076795     -2.71197694811505
  H   4.85421428159458     -3.55790903263160     -2.99006956783199
  H   7.31402275700741     -3.91062981195105     -2.35878886757842
  H   8.39800137607758     -2.71104477008864     -0.66434409987352
  H   7.99383308524273     -0.16022004604843     -3.03045710631622
  H   8.74304778773950      0.58766547236970      0.42484860618497
  H   6.25968089462857     -2.36207866026115      1.19689781557981
  H   4.30312187414480     -0.17301897802059     -3.77966233884990
