22
Coordinates from ORCA-job 15178optt
  Br  1.01748518998157      0.05788156823711     -0.51681943026985
  C   2.85764803162272     -0.07669022516335     -0.26171197312752
  C   3.47756450129048     -1.28464584641211     -0.19341512320771
  N   2.86876765303160     -2.49716096006319     -0.30798042283259
  C   3.61104740909553     -3.55241711214316     -0.22645410418157
  O   3.08058259869895     -4.75233067224175     -0.34670904845968
  C   1.67435181153365     -4.82117996263197     -0.59583510518322
  C   1.35349604094929     -6.30330009270198     -0.71134827046104
  C   -0.06547503231474     -6.50060170449905     -0.99425316473125
  N   -1.18059917410295     -6.63435762536959     -1.21666585815817
  N   4.97389561736048     -3.60490043448607     -0.01785319956825
  C   5.53294544370290     -2.45955192546998      0.08986031619278
  N   4.85225784147150     -1.28084220047696      0.00716066892198
  N   5.61789251654926     -0.14045419213722      0.14329155058404
  N   5.06883773247411      0.95906535709356      0.07045065765892
  C   3.63677195273729      1.13421989123244     -0.15514660816466
  O   3.22534790131092      2.25697707440182     -0.23229326903209
  H   1.43865302423705     -4.28385689748426     -1.51428913004572
  H   1.13221919740528     -4.34922066828037      0.22318973341920
  H   1.60637054328020     -6.81709849932561      0.21666950227061
  H   1.94089226329740     -6.75197159956521     -1.51322080554669
  H   6.59904693638748     -2.34956327251305      0.25537308392249
