22
Coordinates from ORCA-job 15176optt
  Br  1.28162167133970     -0.43457242645931     -0.99473369585881
  C   3.05945514262418     -0.12790274477923     -0.50412384536274
  C   3.62300196286462      1.04974527502219     -0.16936246410850
  N   3.25596374537703      2.34773472716980     -0.07723848255353
  C   1.94486244988556      2.93546854720572     -0.07389187757587
  O   1.64425876018712      3.75000864480585     -0.88614948390650
  C   1.07204669916602      2.51704350958883      1.07962950803523
  C   -0.35902845822242      3.00926799252215      0.88314929984810
  C   -1.22986757278789      2.54964724110997      1.96140106142855
  N   -1.89413666085635      2.16717195884291      2.81233406197325
  C   4.46133805308077      3.12338966460093      0.22249122846963
  O   4.42926294788525      4.29773427047506      0.41490550109668
  N   5.53348098109092      2.23695580431372      0.27239344620558
  C   5.05816240345287      1.05315921730051      0.05564416804679
  N   5.78815455737325     -0.10699480682865      0.01410307776601
  N   5.19785207955222     -1.19514667475916     -0.25863487272261
  N   3.89945965498381     -1.20916225892742     -0.51584282546586
  H   1.51814763792882      2.95227640995856      1.97961156960010
  H   1.11196814908260      1.43521916183420      1.21274536753938
  H   -0.75581700887272      2.64753245772589     -0.06669493508256
  H   -0.38040246986134      4.09808857822489      0.84036209435469
  H   3.54221527472595     -2.12866454894744     -0.73309790172701
