21
Coordinates from ORCA-job 15177optt
  Br  1.51613575995396     -1.59349178342716      1.07191296753094
  C   2.55229749412420     -0.31764591162020      0.16713073135614
  C   2.55205144704316      0.97563218766221      0.53247469311912
  N   1.86838028471216      1.38312544021400      1.72142698166801
  C   0.47930186136955      1.81756487351819      1.43984531638890
  O   -0.46278051049165      1.15077057870267      1.69455159061099
  C   0.62559321804925      3.08235725579675      0.67110084613616
  C   0.85004620649285      2.92087084485440     -0.62872789911146
  C   2.00459690703457      3.65271103899108     -1.20038809242837
  N   2.07174708515973      4.78070372073431     -1.75444530671311
  N   3.23506942324207      2.94901285407587     -1.01277346141971
  C   3.41261116504119      1.89835962052329     -0.31983038015110
  C   4.81771586109937      1.34223272263061     -0.44144858437578
  O   5.79361741594238      1.85665724720353      0.00086738966270
  C   4.90032810307108      0.01604431147357     -1.23544625277180
  O   5.84332915747350     -0.28301137596180     -1.89032495386844
  S   3.44306927771662     -1.02936587818686     -1.17777416273081
  H   2.37507441211060      2.15386117282500      2.14801134840221
  H   1.07367321014106      3.92009922015791      1.19814366352266
  H   0.52495652482520      2.01867213629866     -1.13886897190489
  H   1.14018569588912      5.18583972353391     -1.84343746292236
