23
Coordinates from ORCA-job 15181optt
  Br  4.01437848726826      0.24837322030313      2.60087725096195
  C   4.85692994333302     -0.81573177161683      1.29962242739920
  C   6.17246672292594     -1.26439129553679      1.47631636506125
  N   6.74111132520960     -2.01787206629010      0.55578520197720
  C   6.20896052847610     -2.17440803489123     -0.63040914318432
  O   7.08732319498952     -2.61453827200181     -1.60091166665060
  C   8.38200327589670     -2.35762307647556     -1.15451776953019
  C   8.76043026731654     -1.10305781085563     -0.93811384840876
  C   9.49184050629303     -0.81884122591447      0.32143072277507
  N   10.59592498418166     -1.15338952015422      0.79702004296943
  O   8.56485552014841     -0.11182553729115      1.09778699622292
  C   8.15349841803626     -0.54200145234352      2.33483027136984
  N   6.98731681241688     -0.96117071978487      2.57515501388305
  C   4.89725723100580     -1.80557242524693     -0.91291511465750
  C   4.26211540926672     -2.02874258547018     -2.22775826132541
  O   3.12986836737311     -1.70506955606813     -2.47248351846346
  C   4.22243846981894     -1.13388779222467      0.11237627716454
  H   8.91106135413848     -3.23041933521007     -0.79276549821277
  H   8.09287524540432     -0.31238733261881     -1.25993550344634
  H   11.16113061857963     -1.63613247852982      0.10288024287372
  H   8.88232947475438     -0.41651398028576      3.12865811839905
  H   4.89667038797342     -2.51590285843687     -2.98592672223233
  H   3.20621345519320     -0.80989409305570     -0.07600188494554
