25
Coordinates from ORCA-job 15182optt
  Br  1.18547691363467     -0.25040700079323     -0.49659647001729
  C   3.06071217043686     -0.08348717387717     -0.34585542416422
  C   3.73226560468113      1.10742071955252     -0.58415114380012
  N   2.97365650693103      2.21038760687580     -0.99496146349878
  C   3.02969309066027      3.51702785814403     -0.54635860348307
  O   2.12367035647479      4.27554649042014     -0.79056481740099
  C   4.28768051437739      3.92210205580828      0.16782782486873
  C   5.49375503307322      3.72652660045065     -0.74681904776923
  C   6.02990061023747      2.31353856063311     -0.80714393031787
  O   7.19193342136453      2.13654835182810     -1.08240123413796
  C   5.15964864931184      1.13142143377772     -0.48016510401504
  C   5.85659486906632     -0.00499063913622     -0.10749053288127
  C   5.17874352646214     -1.18849705981641      0.16086169496760
  C   3.78258643258258     -1.21660623711890      0.02169198246870
  N   3.39401420046225     -2.47257689045910      0.32475902762561
  N   4.43926371325539     -3.26257556791631      0.65250919134483
  C   5.51021000604675     -2.52036498440608      0.56138569630357
  H   2.07047597014113      1.99440012791826     -1.39796082381825
  H   4.40354142370793      3.33779395094201      1.08463768533980
  H   4.16909136327166      4.96761890586894      0.43917759399597
  H   6.33171474132723      4.34870218710143     -0.43560663546690
  H   5.24517168811454      4.02931948665176     -1.76898193686305
  H   6.93512103774229      0.05882807087565     -0.05536334690299
  H   2.45939807089370     -2.84443802931080      0.33603300407253
  H   6.48068008574279     -2.93923882401421      0.77353681354970
