24
Coordinates from ORCA-job 15188optt
  Br  1.02904954071141     -0.09208309849376      0.11395625275344
  C   2.87622554761006      0.10484839383211     -0.02755828714182
  C   3.47730835812841      1.27987371667093     -0.32814150252153
  N   2.71757270551705      2.43440632567757     -0.56043262149281
  C   3.06942119491107      3.49343771493841      0.01733800621112
  O   4.04044239625807      3.55941064735956      0.95931769194301
  C   5.23156348135530      4.26127090430876      0.58604462790041
  C   6.27936599142063      3.26510674814036      0.12974004232256
  C   5.79006906129576      2.32081816845646     -0.97388763924896
  O   5.07988887401653      3.02268085732326     -2.00313113807393
  C   5.82542652669217      3.72458060978758     -2.86458929514556
  O   7.01148460995784      3.84365580437774     -2.81780137898481
  C   4.91318814972749      1.18632283642801     -0.46120646192323
  N   5.58564922434559      0.11598208576967     -0.18879699091178
  C   4.95661455372707     -1.01933213507549      0.25990486349490
  O   5.47268908538558     -2.01736800499556      0.63729703164743
  O   3.54487588866292     -1.00567327001421      0.22234931102367
  H   2.56046599968769      4.43083428046430     -0.19978822801479
  H   5.57291590141347      4.80136760107056      1.46697988617577
  H   5.00207120865236      4.98859366040785     -0.19782916769290
  H   6.59694047542140      2.64760010450928      0.97193686680951
  H   7.15212011228418      3.80347693186494     -0.24095076724457
  H   6.65952835841329      1.83852731874974     -1.41793901867273
  H   5.17512275440455      4.17666179844188     -3.62181208321240
