24
Coordinates from ORCA-job 15180optt
  Br  1.00223776132546      0.14188420487868     -0.33716043741809
  C   2.85799609624556     -0.01639801685325     -0.09989990814550
  C   3.49405382386010     -1.23681056386368     -0.31889134356537
  N   2.79501102408376     -2.38148719867392     -0.74830403482314
  C   2.53251270585264     -3.50211310064571     -0.00993370991161
  O   1.89899680067627     -4.42973915087679     -0.43645358527051
  C   3.09897891299709     -3.52741712937355      1.42161178596425
  C   4.65776353649580     -3.54424719417658      1.49358211117877
  C   5.33102403246140     -3.59435412428162      0.13962516654004
  N   5.69733663249613     -4.60639099931506     -0.49923026713408
  O   5.62127130608880     -2.37570474171725     -0.41998923186772
  C   4.87418118838701     -1.27405206662381     -0.12287836334890
  C   5.53431183050080     -0.12298193696959      0.29040715614951
  N   4.91167015791866      1.02557629676667      0.49813510788144
  C   3.60033250221512      1.08347276622648      0.30268446615832
  C   2.54316005535811     -2.42548395591146      2.20793779082467
  N   2.12194313601401     -1.55448502398655      2.82157003243396
  H   2.28467099884689     -2.32927311917329     -1.62085096053129
  H   2.70819145057077     -4.45581156601072      1.83434680539890
  H   4.96537376204111     -4.42815810321078      2.04669121079674
  H   5.01036957355691     -2.66990530575233      2.03967309664676
  H   5.49744064997294     -5.46059416896246      0.01293899860950
  H   6.60852962013948     -0.15643350194888      0.43186909613083
  H   3.11064244189509      2.03290770045551      0.47951901730252
