24
Coordinates from ORCA-job 15196optt
  Br  1.22078113828953      0.16999517398498     -0.42988150339934
  C   3.06417673972903     -0.03284323054019     -0.27506648868297
  C   3.69073618125676     -1.21196486500253     -0.17244288719982
  N   3.23543712582610     -2.49895397065774     -0.13993452392097
  C   4.30296540378706     -3.40648678022681     -0.00437915178738
  O   4.18447894153891     -4.59961945282249      0.05270809556888
  C   5.51204265428125     -2.55447074164210      0.04194013933568
  C   6.83356658073767     -3.04237789899588      0.17578783072892
  N   7.91878641732222     -3.40383426380387      0.28273091654760
  C   5.13507849706412     -1.24741120374782     -0.06071242507989
  C   5.81646618300537     -0.00014074374740     -0.07472840103404
  C   5.09728500898097      1.13595550480264     -0.18120012899990
  C   5.63876911572849      2.52389600383165     -0.16102514609159
  C   5.31451978304631      3.24711117493443      1.15984553421773
  C   5.93938101119083      2.58749148368989      2.30196070812685
  C   6.47177604800800      2.01398040361616      3.20840574312166
  O   3.74481412596103      1.13070522820349     -0.27952742368565
  H   2.27395486381851     -2.79269601733677     -0.19408374238623
  H   6.89146978953914      0.05614493325952      0.01540341412808
  H   5.20519112417806      3.08550727459576     -0.99026410570815
  H   6.71765170107540      2.47834414765392     -0.29974913118697
  H   4.23263407059608      3.28503851347067      1.30077667708552
  H   5.66718189613857      4.27740481633516      1.09406141567696
  H   6.94185559890058      1.51022451014534      4.01937458462503
