23
Coordinates from ORCA-job 15190optt
  Br  2.49421831435679      1.75820501335309     -3.10643622673208
  C   2.86605784044240      1.04415053558154     -1.41841882368409
  C   3.68847380008527      1.62565901090937     -0.51909459575796
  N   3.97103646696850      2.99355215189322     -0.55645486968743
  C   2.99121625860937      3.98419292961245     -0.51555704004545
  O   3.28281794395336      5.15126679137842     -0.52891737458262
  C   1.56238402085665      3.50016875549770     -0.50460975298925
  C   1.10209897186751      2.65923021949695      0.41023327403825
  C   -0.19018477894161      1.92567672062551      0.23282182777988
  O   -1.18322319160021      2.41140090884618     -0.24664731887972
  N   -0.14869570974048      0.58512844219064      0.61251435746035
  C   1.01194916802781     -0.03762244236391      1.11293328102574
  C   2.08222174258972     -0.21187300387550      0.33650005820499
  N   2.12530311668299     -0.05520538547950     -1.05377056918752
  O   3.34022347085798     -0.32871367368794      0.86637854590021
  C   4.10041870500786      0.82298824520605      0.65422058234188
  O   5.02281658147733      1.06377561928173      1.36281016656758
  H   4.91767262400915      3.32655193505676     -0.43011301352854
  H   0.94261343379917      3.81312329955281     -1.33817691659677
  H   1.73622764133744      2.36251484407689      1.23609340928093
  H   -1.05162677461274      0.13364453322774      0.65413220879659
  H   1.09889857791161     -0.24410579435992      2.17316828360594
  H   1.30008177605407     -0.26870965602030     -1.59360949333092
