25
Coordinates from ORCA-job 15199optt
  Br  0.98312077740511      0.19664414998856      0.12474371274350
  C   2.84237635773536      0.13831590443012     -0.01796252811394
  C   3.54873447110579      1.21158733020242     -0.43034477654028
  N   2.91885058494215      2.39351376433413     -0.83680705721125
  C   3.25463737727932      3.46541379510560     -0.27661921920699
  O   4.10200776831645      3.51810994584862      0.78737809392825
  C   5.33035765151014      4.15453421401459      0.49493208615298
  C   6.34794323445537      3.09197221233961      0.09962465703612
  N   5.82268480425469      2.19080743744030     -0.91112895450382
  C   5.01073624215897      1.11691310264531     -0.48375923578936
  N   5.62210620113156      0.04886948098439     -0.11811485406438
  N   4.89524890130545     -0.97930138038798      0.32343828296416
  C   3.51169313808328     -1.09944772232298      0.37646053951311
  N   2.87825474137550     -2.14422362860797      0.73500706513599
  O   5.77075468330590      4.80492756374277      1.65893732101544
  C   5.10150256834404      5.93024830560630      1.98261921877252
  O   4.22175995402540      6.41069069499038      1.34036595109113
  H   2.86710593271014      4.42732915191881     -0.60738878712631
  H   5.17555561054919      4.89252000031453     -0.29998716546474
  H   6.60810863054359      2.50645516690541      0.98125053994545
  H   7.25470685468136      3.57677076519740     -0.26497431588533
  H   5.45164207516294      2.66681416308909     -1.72240570908161
  H   5.44714731124107     -1.77820690135251      0.59365639185819
  H   3.50365586451772     -2.91160724840440      0.97115966444576
  H   5.49630826385945      6.33334973197746      2.92091907838540
