25
Coordinates from ORCA-job 15204optt
  Br  6.39116882924808     -2.42812573661130      5.10851220870301
  C   5.55597809022215     -2.76744080949868      3.45923327487017
  C   5.06453273038877     -3.96241422871329      3.11860274013115
  N   5.59749618140952     -5.16493517333961      3.66314307261704
  C   6.81726418070956     -5.40177703649188      2.95967739109269
  O   6.82768980915158     -5.35987705692962      1.75718293413972
  C   8.03592821136291     -5.63109617369612      3.77554915990756
  C   9.17065858714562     -4.91018855129316      3.79074925362224
  N   9.55462791081049     -3.69422399084094      3.24903836056171
  C   8.74459070621918     -2.55466063073749      2.99806614347258
  C   7.82532006698896     -2.52555940084869      2.04638562225521
  N   6.79293032416233     -1.59190891289951      1.77654790332220
  C   5.66848483788108     -1.79378258788606      2.33949280930412
  C   4.41364998529069     -1.55213290310494      1.59870763045731
  C   3.65451994476610     -2.63771005978923      1.44053622472339
  C   4.02996384543866     -3.96876411993270      2.02793938412490
  O   3.46532483203761     -4.97954247030434      1.70443152841824
  H   5.74569935871984     -5.10147993758293      4.66363696342266
  H   8.02705191928767     -6.51386153495421      4.40311847435627
  H   9.98370854526370     -5.34862822747050      4.36021769593521
  H   10.49722354383156     -3.45594875918802      3.50916342474936
  H   8.89109853111206     -1.71898420959742      3.67333806871329
  H   7.75952398976490     -3.36637771558423      1.36106430873961
  H   4.24807929206531     -0.61898494634038      1.07688080082472
  H   2.77748574672158     -2.64859482636466      0.80678462153562
