30
Coordinates from ORCA-job 15202optt
  Br  0.74331586075968      0.83970063120933     -0.52267296125304
  C   2.61507084256137      0.97527038857764     -0.32992770949642
  C   3.17806299419479      1.37325782933748      0.88594625404193
  N   2.44047412510369      2.19592274834341      1.76444062059284
  C   2.22846516868897      3.53728097074237      1.45033099079518
  O   1.83345849295275      4.29793988214000      2.30065857352984
  C   2.46652248668717      3.99906691478096      0.00835828491707
  C   3.94146769034398      4.07915875817835     -0.45488943172781
  N   4.11951079769401      3.73657059440673     -1.87342376888563
  C   5.43390493940948      3.22402456616160     -2.26059722337243
  C   5.46917359841385      1.68331195750379     -2.51664024959481
  C   4.78962672829098      1.03542161712259     -1.34751893463242
  C   3.41571131533789      0.85081782426722     -1.44971065787023
  C   5.35865006417066      0.99757199087755     -0.06588132380890
  C   6.82521678118089      0.98970198091248      0.14903704073596
  O   7.33762186994649      0.99688484361903      1.23794868688923
  C   4.54145255303980      1.18321384552855      1.04537113349654
  H   2.40502501147451      1.99713579203106      2.75448548675735
  H   2.00101011499991      4.98146338967577     -0.04013721564668
  H   1.92919908810467      3.34778023931059     -0.67805533215524
  H   4.55328687910105      3.39468681588597      0.12147006802922
  H   4.32520221418795      5.08093720129559     -0.23173228415743
  H   3.85931272709649      4.51608826782310     -2.45965999572151
  H   6.18282066342559      3.45279242917530     -1.49256170888557
  H   5.75959803467325      3.71961301523154     -3.17635799914384
  H   6.50637495391096      1.38212645362258     -2.66573979719727
  H   4.91865829283454      1.45993373859537     -3.43078115572317
  H   2.95132730687846      0.76965394434714     -2.42331498609540
  H   7.45048419396063      0.96017110280028     -0.75995848406379
  H   5.01299421057549      1.36650026649661      2.00451407964642
