24
Coordinates from ORCA-job 15212optt
  Br  2.34223638258305     -0.68822803476690     -2.45415551074529
  C   2.97672358535955      0.30890811060064     -1.00150577677051
  C   3.51499591518406      1.53158071016479     -1.10830611472185
  N   3.30963279575381      2.36099235709625     -2.22621277593353
  C   2.42328661514241      3.43862749080534     -2.14628837712067
  O   2.39722152650953      4.26792488835328     -3.02170159645050
  C   1.61263815303406      3.60001923586381     -0.89430179277077
  C   1.05390373987942      2.63910111317574     -0.15680993782279
  N   0.48061622519242      2.80394223896884      1.09934214944394
  C   0.55410029868582      1.89226991048845      2.16306478715303
  N   -0.05168005455265      2.00687458426567      3.26688297444746
  N   1.30298427476693      0.72040337711353      1.94686077565263
  C   2.50224862909308      0.77736853877882      1.22271429724365
  N   2.65527823993560     -0.20371582176329      0.24949448224215
  N   3.25059398770327      1.80027580365607      1.27786770583191
  C   4.03126438667279      2.13252510679922      0.15921472408592
  O   4.92137254768813      2.93502614599408      0.19472032251257
  H   4.02487218082160      2.47957261042580     -2.93045027968361
  H   1.58641185213481      4.63144969223867     -0.56103715217208
  H   1.01976744577582      1.61779864524191     -0.51028987584307
  H   0.35935038107040      3.75739376862446      1.40786558559638
  H   -0.69049159960658      2.79637369973238      3.27430050505115
  H   1.18656429416288      0.04942523006835      2.69381848558103
  H   1.99510819700974     -0.96790940192594      0.25491239519285
