25
Coordinates from ORCA-job 15213optt
  Br  1.46688172321037     -1.86198076201255      0.74162542519096
  C   3.19110459446339     -1.53478023889127      0.06764148905865
  C   3.53560614893283     -1.97574136559010     -1.17452009438762
  N   4.77870562549823     -1.72181302313020     -1.65048054188166
  C   5.88114678132270     -1.34845288637367     -0.84978627159421
  O   6.94291498844243     -1.08476373992200     -1.35232784237608
  C   5.56797660537151     -1.42898317010509      0.57700367147530
  C   6.48247164248493     -2.31584013668886      1.39784475684684
  N   5.84497393643999     -3.66803126035099      1.32845718677415
  C   5.61505984752860     -4.15516902923971      0.05372028010233
  O   6.44264170054197     -4.10372506386131     -0.81863302529030
  C   4.20303241324461     -4.71466157692821     -0.24725206487405
  N   3.93549898904516     -4.76464760896919     -1.66889138833703
  C   3.31029043095949     -3.89686998439428     -2.50718769311780
  O   3.18477821248706     -4.06556674831201     -3.68015350371722
  O   2.73148752495436     -2.75559679959387     -1.92657869301884
  C   4.27191559600713     -1.31501462056952      0.96617040145904
  H   5.00577356862266     -1.96491167870226     -2.60895855928399
  H   6.54510199654144     -2.03548484405947      2.44701170272804
  H   7.47873804094491     -2.36811437666551      0.96868886162215
  H   5.01971953233463     -3.70486148532003      1.91313673803719
  H   3.43094663060515     -4.13464260770177      0.25622289074273
  H   4.13788973747861     -5.73137436913545      0.14667569786921
  H   4.43893993320149     -5.46624171631513     -2.19133519437124
  H   4.02940379933628     -1.34673090716750      2.02490577034345
