24
Coordinates from ORCA-job 15222optt
  Br  1.39739384146795      0.26957617371169     -0.32539535480205
  C   3.27182601022970      0.09767286250033     -0.54533297856077
  C   3.84440430766614     -1.16777283788591     -0.61493277746878
  N   3.03626957311136     -2.31160540309917     -0.56404232316675
  C   3.27525320668996     -3.50514924664300      0.07964252447452
  O   2.38513057682599     -4.30018108813682      0.25319775403587
  C   4.71495711123731     -3.77013782765171      0.42985762619229
  C   5.60390654029149     -3.54595526293399     -0.78480697390031
  O   6.04876756485632     -2.20011949586952     -0.91052058508791
  C   5.25246021787409     -1.14017131408424     -0.79969909097656
  N   5.92264638216952     -0.00539650577068     -0.87169886244224
  C   5.23821858105501      1.11554264960590     -0.79885041332585
  O   5.97317140422882      2.23307625933182     -0.89914938490309
  C   5.24970943968502      3.45051828180055     -0.85512721171927
  C   6.19256225668073      4.55071403760561     -1.06646550008163
  N   6.87791267396436      5.45192121961971     -1.22994221650363
  N   3.93165175236771      1.23334352593919     -0.64348553907029
  H   2.05717453115905     -2.16676773627529     -0.77493457743399
  H   4.77665488669764     -4.80308798758924      0.76459353310849
  H   5.04498673037108     -3.12392357211971      1.24772271672363
  H   5.09894663496351     -3.85369618976111     -1.70296324233222
  H   6.52698441778873     -4.11280978074595     -0.69512603025541
  H   4.75532481842925      3.57495007256514      0.10964893744249
  H   4.48468654018918      3.47845916588642     -1.63219002994650
