27
Coordinates from ORCA-job 15228optt
  Br  5.10419257308760     -0.50422254852782      3.41645782834781
  C   5.38237850472701     -0.40094951437120      1.57407413203980
  C   6.56395789800461     -0.01296948521890      1.06001033814911
  N   6.63142185497097     -0.05647376263464     -0.34799306254417
  C   5.97550898994947     -1.09695685977177     -0.94157004507132
  O   6.67092357131542     -1.66803121172637     -1.96874977148921
  C   7.88001002377041     -2.25067668857854     -1.49803483405589
  C   9.06493581441326     -1.28517336367469     -1.37035932104919
  O   9.09114165928282     -0.24344164503506     -1.97465724425476
  C   10.22015769953676     -1.69233414503906     -0.45897090301992
  C   10.86056713589718     -0.50226418175449      0.29070823946423
  N   10.07365082581173     -0.02707822769737      1.43464378165896
  C   8.81503839247399      0.38077119653139      1.09886936118889
  N   7.76726867669521      0.04828251169747      1.74526296257374
  N   4.88622366792256     -1.57112465499707     -0.50937106435188
  C   4.35234803954482     -0.93265495276322      0.64594743906938
  N   3.12206522855546     -0.93254053577454      0.93494940923313
  H   7.41639596013907      0.31711349811826     -0.85119159703349
  H   8.16114856876619     -3.02047848158948     -2.22147324747575
  H   7.70830049025863     -2.74586898369574     -0.53670861861143
  H   10.97828481239254     -2.14454675178423     -1.10654990645534
  H   9.90086789433311     -2.46230625941300      0.24631754723023
  H   11.84194861705295     -0.79092364325202      0.65989400618856
  H   10.99653452963550      0.32393492242723     -0.40725567671924
  H   10.06989700897348     -0.65432450656745      2.23091700201105
  H   8.81565855980978      0.96919757854689      0.17954693625576
  H   2.60117300267937     -1.41195930345455      0.20128630872092
