23
Coordinates from ORCA-job 15239optt
  Br  1.34945895344895     -1.66762911775942      0.22861559095091
  C   2.55986314535424     -0.24096712180585      0.15230756761871
  C   2.29601906276607      0.96244162544059      0.71269596287881
  N   1.14440389015213      1.22418403102430      1.49058750146282
  C   0.20154161461458      1.85676489739531      0.95335804308541
  O   0.15604574156283      2.15940664260802     -0.36775562060208
  C   0.10595524072538      3.54873037597601     -0.69430726305139
  C   1.54707524173941      4.02434004105961     -0.60096096896440
  O   2.20994783670532      4.34843867962249     -1.54143187001708
  C   2.10596181646830      4.10694201319956      0.82959724133564
  O   1.67254974295187      4.98656760819092      1.53673433969492
  N   3.09079118723765      3.24352939931824      1.18351123644890
  C   3.31153503655376      1.97670900821163      0.56459074399035
  C   4.46593250117795      1.74333259410814     -0.09775895925802
  C   4.75272582944458      0.45153387032391     -0.69186657814582
  O   5.75995971261065      0.14473262686169     -1.29389690096375
  N   3.72254033200011     -0.47459882385867     -0.51377687060265
  H   -0.66131295042490      2.17220095164558      1.53873427471652
  H   -0.53682595656623      4.10034979623442     -0.00241699934875
  H   -0.25125594088000      3.63244263992949     -1.71619608656654
  H   3.42408376644223      3.35992167408688      2.13326220839432
  H   5.20984846823114      2.51808295043456     -0.21094757039354
  H   3.88615572768397     -1.38545636224743     -0.92167902266330
