25
Coordinates from ORCA-job 15230optt
  Br  1.57058834842172     -0.61410940006690      1.20260734513729
  C   2.05480044937296      1.02557596171067      0.39898271639337
  C   2.56904532505918      2.05056724706405      1.12247878572464
  N   2.06330507094376      2.57236479927843      2.35443038596967
  C   0.80284053909442      2.64614377952613      2.18195170280346
  O   0.00347711913304      3.50902691226662      2.81093622212124
  C   -1.07479260765325      3.92362929590317      1.95106570409267
  C   -0.62136148480362      4.30345021104089      0.51530414309611
  O   -0.76883152818762      3.15857881592766     -0.32617401802396
  C   -0.00039254575358      3.10473651690150     -1.53355454150322
  C   1.33527438393697      2.52583089512041     -1.12923084508604
  O   2.19554201326735      3.47185850115751     -0.72859680638428
  C   3.12335322364274      3.12889940172619      0.28270222318670
  N   4.19054238806598      3.75229859430500      0.43010214844434
  N   1.44665564093121      1.29124021895459     -0.81199035554259
  C   -1.41493188730680      5.42401716016145     -0.00069127747154
  C   -2.06396806203341      6.34033903992881     -0.41388468548119
  H   0.27860457627833      2.08430762826994      1.40765975229079
  H   -1.50368346908368      4.79110736274396      2.44233349344731
  H   -1.82514046969405      3.13406663660920      1.87265958036902
  H   0.42835738784486      4.61649104233278      0.56253718409660
  H   -0.52478884615193      2.42913967915340     -2.20251459822914
  H   0.09808477786797      4.09472707993364     -1.98202300914085
  H   4.29279210150128      4.49828895815761     -0.25688825426079
  H   -2.63737244469384      7.15942366189327     -0.77920299604962
