24
Coordinates from ORCA-job 15249optt
  Br  2.32577927592781      2.75526096215941      2.01949559517541
  C   4.14335530355931      2.12585324871226      1.89556818399743
  C   4.28568973463937      0.77563160284950      1.56073232587771
  N   5.48017212202316      0.33492682085158      1.03942643236472
  C   6.37607098412492     -0.31539110648475      1.94418033724106
  O   5.99030297987903     -0.90921681941714      2.90982175087626
  C   7.79477268257177     -0.06582842969144      1.60742705457984
  C   8.69079358565093      0.45832351023369      2.44848806243756
  S   8.62869714209237      1.05859605648864      4.08090553476864
  C   6.95958397556577      1.60761782058068      4.49456303039662
  N   6.71157986775859      1.53635206329610      5.72589301125822
  C   6.15556730009631      2.19308756423665      3.40269701274685
  C   4.83831712142325      2.00701444816316      3.21508512979359
  C   3.96854363321874      1.15058944894910      4.11584275716261
  O   3.87071742703192      1.25867250105328      5.30564973207046
  C   3.13963565569795      0.05279952206151      3.40428663217811
  O   3.48364108906974     -0.16858902134060      2.00735244796957
  H   5.92938353159499      1.03625408455142      0.46536570062422
  H   8.10224215456040     -0.29506596167287      0.59302613334732
  H   9.70956346824717      0.54664403553823      2.08384242311167
  H   5.81353617107317      1.96469117092651      5.95202542753388
  H   6.70966530144320      2.68535919225694      2.60991816631916
  H   2.08159589159784      0.29281535259340      3.48393323988602
  H   3.35879360115221     -0.88739806689526      3.90447387828305
