22
Coordinates from ORCA-job 15243optt
  Br  1.03197680012702     -0.28356755664120     -0.31071973790370
  C   2.89437859371446     -0.11637472897003     -0.17691988568473
  C   3.65837977170643     -1.23329526679741     -0.10293608900128
  N   3.27119938951704     -2.55988694573153     -0.10494868362127
  C   4.33663435101088     -3.42606235227217     -0.01973672020622
  O   4.30720499025924     -4.61945922125512     -0.00489016109742
  C   5.59767126416871     -2.53710305041880      0.03223529522368
  C   6.48596548399799     -2.81312312637761     -1.17854522461450
  O   7.53400384360789     -3.37294736171364     -1.09427893432058
  N   5.02458673646890     -1.21358790149298     -0.01436083224971
  C   5.66076286329875     -0.00197634992122     -0.00100657918727
  C   4.92795006935122      1.15147398514480     -0.07037231657113
  O   5.76714050951127      2.21099374494022     -0.03891853964171
  C   7.01541925923951      1.72221424480435      0.04892832707205
  C   7.03495690245373      0.36435387886010      0.07868930931796
  C   3.47850230975137      1.23505274764947     -0.15751850072235
  O   2.83673762509707      2.26269555083128     -0.20736438991465
  H   2.30632125965971     -2.85312559962290     -0.14872343081556
  H   6.15945602689100     -2.73702926910440      0.94677348610675
  H   6.08105547969560     -2.44278591907708     -2.13959510339826
  H   7.80631196029623      2.45120513924300      0.08650105887135
  H   7.90138451017595     -0.27166464207711      0.14470765235854
