21
Coordinates from ORCA-job 15245optt
  Br  1.33857318541169     -1.42280777444119      0.77095343767690
  C   2.94646540241265     -0.62389990100686      0.27430983502413
  C   3.24382974888702      0.67340330656867      0.48682049618064
  N   2.34363179258760      1.60137333276280      1.09649679181370
  C   1.90953185255548      2.52486559849108      0.10611350005542
  O   0.94009497905512      2.35497369353957     -0.56895980441889
  C   2.83774091518640      3.68792219311192     -0.19501625061496
  C   2.19054875989504      4.94931037887074     -0.74861024120956
  O   2.75109690117886      6.00240898172294     -0.72893418355678
  N   4.09900461046220      3.64184497071998     -0.13171187836942
  C   4.89438376722918      2.56747850785526      0.33837485662172
  N   5.95663948352122      2.80125530459502      0.97898346218884
  C   4.53364400918479      1.13883928932668      0.05447494963420
  C   5.41571216098828      0.30851158573461     -0.53075491414099
  C   5.06902182436605     -1.08036585146078     -0.77369777307956
  O   5.72488035251913     -1.91695723566672     -1.30412772416952
  O   3.79139658286283     -1.45925746808143     -0.31421362660411
  H   2.81362319261373      2.08256868941969      1.85900327350281
  H   1.17220208954790      4.82033981118013     -1.14567221884493
  H   6.10345261391914      3.80987352989496      1.05930638819941
  H   6.39852577561562      0.63031905686289     -0.84113837588906
