24
Coordinates from ORCA-job 15253optt
  Br  2.07424055422560     -0.12268639453521     -2.01214248541285
  C   3.72199714196821     -0.29875894703685     -1.12676700599088
  C   3.78716110106962     -0.44165311120898      0.23994568275676
  N   5.03853708996643     -0.33035048803498      0.78056905337878
  C   6.23567173976682     -0.47313945123496      0.07243113649261
  O   7.31682495013254     -0.34224671001379      0.58665129805809
  C   5.93133034924169     -0.93065875600725     -1.30288195580931
  N   4.78779824116195     -0.66287707379877     -1.84959255774357
  C   6.58187267910012     -2.24725721261911     -1.64409960368098
  N   7.71968709523065     -2.56658298403210     -2.05412035782683
  N   5.65347116161445     -3.21135016579794     -1.14010895194876
  C   5.97803908408154     -4.07074002498888     -0.12938876512609
  C   5.20623050827208     -4.26879973382192      0.97528911932370
  C   4.15658900759888     -3.35988236718035      1.37330290686104
  N   3.46463561525713     -2.65583398210415      0.55177028683740
  C   2.87690714296857     -1.43786150285114      0.94265411317492
  N   1.84854258423229     -1.29478398244806      1.64625840265745
  H   5.14755113636393     -0.40107536157738      1.78574690614235
  H   8.27233602972470     -1.74322711842785     -2.27955185698301
  H   4.69880782272529     -2.87347057777305     -1.06674105712403
  H   6.95074202034178     -4.54030644618993     -0.21800233975569
  H   5.57199395621015     -4.96269814851081      1.71803345606029
  H   4.05345781197056     -3.19631390311587      2.45216067517176
  H   1.59657517677498     -0.31144555669065      1.72958390048684
