24
Coordinates from ORCA-job 15252optt
  Br  2.21502027441246     -3.03408085057875      0.49099945142366
  C   3.53937598917033     -1.73254892362567      0.20582584577261
  C   3.80812643057965     -1.14277145788114     -0.96578692623705
  N   4.74799210434887     -0.08523137123339     -0.94127736355923
  C   5.78536051521015     -0.00458684546533     -0.04128161986316
  O   6.65165650212357      0.83220902412223     -0.07171243425427
  C   5.70525462361325     -1.17901018626462      0.88880531449995
  N   4.37881337294358     -1.48178912778012      1.26716468848166
  C   6.72861470225993     -2.02544942350485      0.99472376713437
  N   6.51093372334790     -3.39936888248813      1.24543687241257
  C   5.88366578225076     -4.21096228374253      0.29552571878479
  N   5.75268886938593     -5.46230598921009      0.29599465678630
  O   5.38045096716169     -3.44421903836765     -0.70398690092775
  C   4.62635023950932     -3.97756432781706     -1.70510337618647
  C   3.80830807861810     -3.22172518934917     -2.44182417830859
  C   3.57345077362874     -1.75485411218286     -2.30812714350516
  O   3.33863632851091     -1.07367896068663     -3.27768924733890
  H   4.76996823049795      0.54485620575068     -1.73251665551702
  H   4.25112425381749     -2.03412813831478      2.10171036213286
  H   7.72845443826718     -1.69369532079858      0.74136700683350
  H   7.18575753738829     -3.89091998353342      1.80986883297856
  H   6.16192115070661     -5.90271726549008      1.11222601076763
  H   4.77176352136126     -5.03719697454676     -1.86892045429650
  H   3.32631159088596     -3.69326057701124     -3.28742222801436
