24
Coordinates from ORCA-job 15260optt
  Br  1.11632424819913     -0.09773050044331     -0.02018080354756
  C   2.98811588227079     -0.00519293601154      0.09234393819887
  C   3.61780981702568      1.18788785305037      0.04604937070712
  N   3.08952043439815      2.45503911232840     -0.05263380410961
  C   4.06464203816601      3.43150770761219     -0.05890180098909
  O   3.89198421047454      4.61355228903070     -0.12352170431396
  C   5.39172612914547      2.68642206319936      0.03477920505504
  N   4.98021454705823      1.30103703749064      0.09456789735840
  C   5.85249344258492      0.21036588076804      0.18962724263634
  N   7.12609151845895      0.30538621269266      0.22825457786382
  C   5.16804090954941     -1.06546462009338      0.24465487195986
  C   3.81591542427451     -1.17619332955712      0.20080632237966
  N   3.16465202477219     -2.40505264446036      0.34053282061637
  C   3.44669235263036     -3.32579091756187     -0.45611075084469
  O   2.85420367851466     -4.53850199727123     -0.26077543806609
  C   3.06936098571210     -5.51038878180661     -1.18588158791714
  O   3.72591768287182     -5.39444275137490     -2.16809113730801
  H   2.09915807726365      2.64153456750175     -0.09825291877647
  H   5.93707865826389      2.99416163120717      0.93029430028390
  H   6.00687905656783      2.89722872571729     -0.84326153908445
  H   7.45675782728085      1.26465958163122      0.17865079244317
  H   5.79269371717393     -1.93732701309084      0.37129532328303
  H   4.12032275441722     -3.26923766379438     -1.30958651791440
  H   2.53340458292567     -6.41245950676424     -0.87565865991413
