22
Coordinates from ORCA-job 15261optt
  Br  1.00149575655729     -0.26840314477960      0.35166435849811
  C   2.85570685026838     -0.06383725253480      0.04681106834146
  C   3.59042855556661     -1.20344362011304     -0.00103711778441
  N   3.19389196188810     -2.51775478199706      0.07261159071919
  C   4.26376185564114     -3.39600053347760     -0.01823412399044
  O   4.20123283756329     -4.58883008620514      0.00904470729502
  C   5.50241566993334     -2.52298097214540     -0.16271882192595
  N   4.94629602608285     -1.18312363929863     -0.13042121133941
  C   5.73354167182831     -0.03792135496399     -0.15068803652872
  O   6.93510495306030     -0.12676391063515     -0.22113922547028
  C   4.93948787335121      1.19920186781719     -0.08251675291102
  C   3.56357749858962      1.17904647200939     -0.02537062848195
  C   2.89112825894269      2.49921995977528     -0.11098875855779
  N   1.72576772299984      2.81138633128581     -0.44635415260493
  O   3.71378198670282      3.56418706694999      0.19914021575971
  C   5.04672351865531      3.43982801762892      0.11871684357571
  N   5.68672098125269      2.36534458595146     -0.06021030500034
  H   2.23371411481585     -2.81046608181163      0.17135797301949
  H   6.01624477051010     -2.72133702625415     -1.10383485143054
  H   6.20584283094656     -2.68342899235118      0.65457337887866
  H   1.14871371075185      2.00495988184707     -0.64989195963294
  H   5.54142059409181      4.39611721330225      0.23448580957135
