22
Coordinates from ORCA-job 15267optt
  Br  1.05140327572997     -0.03899291470325      0.06313241957062
  C   2.93264872215572      0.02802824917594      0.06503496101839
  C   3.59592940144704      1.25180360736744      0.06669824281961
  N   2.92996707433870      2.44941707475077      0.06745998626290
  C   3.55896177379941      3.67675656520164      0.06909282969099
  O   2.95083530157681      4.72034347333249      0.07019960695105
  C   5.03902931343631      3.58250751752193      0.07023749428139
  N   5.69772825811489      2.49127015889255      0.06947806702869
  C   5.00984806482574      1.28436746830060      0.06770206720557
  C   5.72247116782282      0.09918426074035      0.06702682581858
  C   5.07034909805380     -1.12492555901738      0.06554320103958
  C   3.67158205115335     -1.15067740172273      0.06461236888551
  O   2.97914272917088     -2.31242964989623      0.06332245965513
  C   3.65736929406244     -3.47913553386844      0.06287022672296
  C   4.98757967497430     -3.58725555722252      0.06357354384797
  C   5.83322775910066     -2.39464382462845      0.06494071658728
  O   7.04460394989166     -2.42843165301679      0.06567572599141
  H   1.91679602665460      2.45760130644194      0.06688769560762
  H   5.56881139148517      4.53001169324955      0.07170805262487
  H   6.80447353887909      0.12352931472431      0.06779424397918
  H   2.97588245070925     -4.31786358534940      0.06188072526985
  H   5.45335968261735     -4.56146501027432      0.06312853914084
