26
Coordinates from ORCA-job 15276optt
  Br  0.03201327739639      0.83466234178725     -0.59778843481661
  C   1.27894250466813      1.85320044616576      0.40445783735506
  C   2.53036907367357      2.06609498575606     -0.16057212015145
  N   2.67313785281910      2.07271049797488     -1.57279774187405
  C   1.89759401960602      2.93149451352788     -2.34210672538850
  O   1.63129973485961      2.67445415925968     -3.49033714931092
  C   1.44675989538848      4.27897280124168     -1.73479958201720
  N   0.00426221886915      4.33262751107052     -1.48480760568208
  C   -0.44358667253670      4.10825348844882     -0.22174432495116
  N   0.16089844470752      4.42909085783551      0.85644279940501
  C   -0.24130699092871      3.36326304766756      1.80400711047202
  C   -1.61692181063127      2.95737224064406      1.26620450878281
  O   -1.55330885177767      3.33303191644966     -0.12111139458598
  C   0.99120233476704      2.46147185810084      1.63002910237891
  C   2.10879547323332      2.80604007034005      2.38823539610061
  N   3.37138062623546      2.73258340269635      1.97135977455899
  C   3.55847636669108      2.47445753532913      0.68606302608437
  H   2.89358633794428      1.20974608905150     -2.05516000916047
  H   1.71135215985844      5.02635910232909     -2.48179393192615
  H   1.94844372379106      4.51568797345716     -0.80086016969934
  H   -0.58314355998778      3.96567756060434     -2.22044481453407
  H   -0.28843149084637      3.72038801497445      2.83081739250663
  H   -2.39910691089728      3.53908785023683      1.75443192739485
  H   -1.84781498687335      1.89701734962096      1.31966936137688
  H   1.95631862394214      3.23672790726827      3.37337036201041
  H   4.55678860602833      2.60152647816164      0.28023540567145
