22
Coordinates from ORCA-job 15271optt
  Br  0.92381925585610     -0.25685443949877      0.01480740940098
  C   2.77706938062885     -0.09767916613093      0.00541990096632
  C   3.40042665149163      1.07838106192997     -0.07976197658416
  N   4.81928313270582      1.15349965097508     -0.01654741948716
  C   5.30066905810339      2.45552857162868     -0.00847759760562
  O   6.44341622573222      2.81573516375631      0.07440138426467
  C   4.09328925876228      3.34782670433139     -0.13183576142418
  N   4.08606021737071      4.60032971556125     -0.18064838045468
  C   2.88951045322873      2.46637598904811     -0.18878728603574
  N   1.68822991165983      2.82246139750699     -0.31532490766388
  C   5.64665503053620      0.01831685130209      0.08262649029347
  N   6.88357558245260      0.02047874072897      0.29841198144115
  N   4.95732588505194     -1.19861377417432     -0.11536086482630
  C   5.74905786343095     -2.28356130394960     -0.53807542765685
  O   5.36353642905459     -3.41472246024124     -0.60642717860735
  C   3.55232538067443     -1.35602320481946      0.11486129049303
  N   2.97008224511522     -2.44351987073455      0.34826232410365
  H   5.04135863493053      4.96697995245583     -0.12293716033646
  H   1.64704409027152      3.84534782455543     -0.36973079240087
  H   7.26632555556412      0.95946456145013      0.35139293092131
  H   6.75553343626553     -1.96085709324010     -0.81591332374065
  H   3.61040632111277     -3.23189487244126      0.37464436493932
