24
Coordinates from ORCA-job 15281optt
  Br  0.76982287334933     -1.08063796234167      0.62978913626690
  C   2.54918896116525     -0.55624999429107      0.42532203126089
  C   2.91189374686206      0.73397056631374      0.49745246097212
  N   1.97152518025500      1.77474876099358      0.77054699619374
  C   1.86743499795043      2.65519703230400     -0.33275267212074
  O   1.27704164656267      2.39574106776036     -1.33753876637261
  C   2.76168736439482      3.85489567777200     -0.18924435699010
  N   4.00719679356313      3.70029830653980      0.00745008163572
  C   4.67770679143211      2.46728924312461      0.07459031922156
  C   4.29178733027103      1.17585172929999      0.27333635353677
  C   5.31360978800623      0.11380668187969      0.22259024741256
  N   6.66220614907360      0.48175175890519      0.18186922615223
  C   7.63679938095679     -0.16605779092688     -0.53505329733916
  O   8.80748607242181      0.08222175296109     -0.43395473549859
  C   4.95082744479673     -1.17780464035231      0.19062418870845
  C   3.55607777711732     -1.61598834826360      0.19487327396096
  N   3.17966422630933     -2.82470769243794      0.06276025174683
  H   2.28955904188107      2.28486345329916      1.58965190319837
  H   2.36389656570936      4.85997655122407     -0.30539801582467
  H   5.73234197762983      2.62338451478992     -0.10803861544858
  H   6.99033929857467      1.22988987899447      0.77702585047301
  H   7.23020198551745     -0.91450664388753     -1.23148534351828
  H   5.70378418469629     -1.95586287602486      0.19077430648217
  H   3.97992042150361     -3.44007102763582     -0.08219082410955
