25
Coordinates from ORCA-job 15289optt
  Br  5.37505365810724      2.34950438311095      0.78219580473631
  C   5.39703418685189      0.54164127948070      0.23140882476571
  C   6.21384762731506     -0.38177115624328      0.88457729315816
  N   6.25567119011535     -1.63066685452508      0.45072787447424
  C   5.61534673483469     -1.93767423613001     -0.65608459767250
  O   5.88745018528089     -3.13686042310365     -1.23284673864252
  C   7.25096978654654     -3.52282063868731     -1.26489832734071
  N   7.57785178444872     -4.71986279061097     -1.14954819192869
  C   8.15377115645099     -2.36721179850374     -1.48916792228762
  C   8.74448006161759     -1.77641341892070     -0.45305782965855
  C   9.23258383539733     -0.40411996846128     -0.45525694332695
  C   9.07449071308081      0.43200766616705      0.57600149150438
  N   8.43831762773112      0.13141283347485      1.80215424344910
  C   7.08926879368849     -0.05502838043176      2.05769930994948
  N   6.67002783665869      0.02712898385293      3.25043185199932
  C   4.74613133953913     -1.03495295012986     -1.26221948957834
  N   4.64198962144433      0.19964766282808     -0.79042522579419
  H   6.76614319945447     -5.30841687309023     -0.96111745014265
  H   8.07434983678439     -1.87357000103759     -2.45330248063529
  H   8.70379658610868     -2.26525928681614      0.51388435522942
  H   9.67150626520193     -0.00408989986617     -1.36191397839117
  H   9.47478950341725      1.43849085083755      0.50715393608988
  H   8.89791399617590      0.49482823600960      2.62749182721482
  H   5.67027272786102     -0.14277949030435      3.30621164568676
  H   4.16394174588737     -1.30516372889957     -2.13409928285843
