27
Coordinates from ORCA-job 15293optt
  Br  1.15631353935184      0.19606673029824     -0.66626141062333
  C   2.99011234712872      0.10864927341171     -0.32433630749117
  C   3.69652719867941     -1.03764566887015     -0.49518410141622
  N   3.06102238674417     -2.22387753210657     -0.95848932555878
  C   3.11027528128347     -2.47336518159718     -2.31954896851988
  O   3.54421845015784     -1.69611352350492     -3.12199819683791
  C   2.54570814811461     -3.15772894078493     -0.01734007892308
  N   1.67188306212029     -4.03349662673050     -0.26685406897512
  C   3.15299917898871     -3.04169833816945      1.35422805515532
  C   4.64253193175662     -3.45671289644202      1.42627943891633
  C   5.44184642721887     -3.47816914676766      0.13106680774532
  O   5.84667852311680     -2.20784534172163     -0.39521329856363
  C   5.09173681331915     -1.09910561863467     -0.18136351258825
  C   5.68814059864856      0.02971595455569      0.26508899376765
  N   4.97331636620224      1.18076225979377      0.40065275347686
  C   3.61749513174272      1.33749670071578      0.15913598958569
  O   3.06048811053344      2.39620606373722      0.35114954466693
  H   2.73849744290346     -3.47274497441391     -2.58383991852219
  H   1.28369019882055     -3.96465068857832     -1.20497944432412
  H   2.55831682432963     -3.67373322327663      2.00799827501030
  H   3.02784924654586     -2.01373028739627      1.69812222998216
  H   4.68494335080804     -4.48158930310999      1.79878162420274
  H   5.16315312096760     -2.83641680908890      2.15841298734097
  H   4.90597927980926     -4.03309825760943     -0.64354890215303
  H   6.38200849687907     -3.99785645687296      0.31075896489774
  H   6.74057113517721      0.06152343358546      0.50446960038987
  H   5.43169740865160      2.02015839957838      0.72681226935883
