21
Coordinates from ORCA-job 15296optt
  Br  1.75365964827369     -1.35421070965834     -1.72952140509394
  C   3.40525805383667     -1.16963677371722     -0.84217322147373
  C   3.52763472476193     -1.24420484281158      0.51715630191360
  N   4.75522056016804     -0.88260466217461      1.03509519120722
  C   5.92261365846344     -0.78458343625751      0.30042800701645
  O   6.99263520539821     -0.48158188646565      0.77085049140678
  C   5.67985426713755     -1.31005791560344     -1.06896845078627
  N   6.58471775828032     -2.32115719858606     -1.50150447614203
  C   5.85214578600242     -3.41876362176633     -0.88261445282691
  C   5.98302222777254     -3.76933389163702      0.39580533107461
  C   4.88970022845011     -4.34234215010171      1.21245961252528
  O   5.03061547326973     -4.64203085142416      2.36841350030370
  N   3.62984012923470     -4.48193551030614      0.59137822127591
  C   2.61368392443200     -3.76946920735716      0.70790332567685
  S   2.42612375052763     -2.13688881586128      1.55326791261316
  N   4.51094890873974     -1.28478095734574     -1.60390138653181
  H   4.88155575597736     -0.92586068728366      2.04043184378914
  H   7.48277792408503     -2.17809033799485     -1.04535297666260
  H   5.01065666539005     -3.74883479420388     -1.47830474424868
  H   6.81936389341101     -3.41814130716670      0.99185930453750
  H   1.67497145638779     -4.09649044227695      0.26629207042576
