23
Coordinates from ORCA-job 15291optt
  Br  1.97525744163267     -0.78423059845969      1.98814718354901
  C   3.27117136664713     -0.23797384207972      0.76858201757159
  C   3.38618267026085      1.02588462677353      0.31388398892418
  N   2.63002853895884      2.09149522107159      0.84089894818419
  C   2.88334584940176      2.52764272003336      2.13514829225401
  O   3.69144096115962      2.02804511275899      2.86347270723634
  C   1.62525924684404      2.72974329101766      0.05823019918249
  N   0.45614086467352      2.95952763465928      0.48229814916126
  C   2.01516212077780      3.23497076889865     -1.26604761757408
  C   3.21641837693112      3.20834338147284     -1.84602726048225
  C   4.46569376872446      2.52687388861608     -1.44424203576602
  N   5.56471451977482      2.98773637297763     -1.86986188262436
  C   4.39364427100560      1.22285759474598     -0.69546099236797
  N   5.23019954875271      0.31357855229843     -1.04328476360552
  C   5.19401581613363     -0.92429964549490     -0.42245300839168
  N   6.02634390887020     -1.85237335800557     -0.51672937894980
  O   4.07256423402180     -1.20822314122526      0.37801321131564
  H   2.26442340746854      3.39553019337162      2.40491225226488
  H   0.29701320516255      2.55155861752474      1.40314807225641
  H   1.20730078334201      3.75640463567953     -1.76287985409721
  H   3.33698102874031      3.74762186900962     -2.77832243182264
  H   6.33731795767842      2.38182165065907     -1.58376563303504
  H   6.77038011303757     -1.57453554630349     -1.15066016318343
