26
Coordinates from ORCA-job 15292optt
  Br  1.43520678070711      1.48071679111779      2.73297089241775
  C   2.32383000073213      1.25825187150828      1.08261267097157
  C   3.29652230439797      2.11349345829323      0.71379877648672
  N   3.42214060635912      3.39631657383773      1.26663806765598
  C   2.53269849250665      4.41681901263759      0.96069197998970
  O   2.58215486800187      5.47226099149890      1.53815800958089
  C   1.53991635809022      4.14354320723685     -0.17534854057574
  N   0.47506184296086      3.25223742838119      0.24684200707075
  C   -0.03677751121192      2.27462214677013     -0.70270893360252
  C   -0.58711961599068      1.01155645424155     -0.01592100102460
  C   0.38729150066537     -0.14063254498049      0.25182978150938
  O   0.00642499900217     -1.27042683682981      0.37219788952527
  C   1.86306979647144      0.20714879223311      0.21646469134329
  C   2.58796861101836     -0.31661103281558     -0.78976336303150
  C   3.92136319442049      0.13327852349613     -1.17782648296721
  O   4.65566582402430     -0.42666875069543     -1.94256451943610
  S   4.39205224544396      1.77575282344090     -0.59534980524081
  H   4.09624163608151      3.59486485763744      1.99366821496459
  H   2.07872184581701      3.67775678899148     -1.00339337050324
  H   1.19306703731452      5.12413887343118     -0.50994593797280
  H   -0.26569434496266      3.74999664179023      0.71984419488112
  H   0.78237621510128      1.99897450399309     -1.37182467586293
  H   -0.82679977831373      2.68524387110804     -1.34213377361981
  H   -1.37731660059679      0.56280982106287     -0.61978991657714
  H   -1.04216955689776      1.28011356262668      0.94076387326178
  H   2.16710324885716     -1.09855783001313     -1.41191072924436
