22
Coordinates from ORCA-job 152optt
  C   -3.78363106560033      0.79489492126674     -0.00233992175803
  C   -3.15152884006923      2.04386968896193      0.00007811294321
  C   -1.77128742306982      2.13557745441618      0.00088697961224
  C   -1.01618723214796      0.96495679331204     -0.00074669003113
  C   -1.66958621164654     -0.28345619991254     -0.00323032618321
  C   -3.05730437038888     -0.38277161286134     -0.00405952090203
  C   0.40362371377023      0.68851566732746     -0.00047559242096
  N   -0.71604356678243     -1.28020736170362     -0.00444532193886
  C   0.54191391151875     -0.71388063922434     -0.00273385817143
  C   1.54246276229864      1.49018947026782      0.00172434781637
  C   2.78801711950518      0.88804947431895      0.00164077504528
  C   2.90644040744128     -0.50687991055067     -0.00062801001622
  C   1.79148559996351     -1.32603625195332     -0.00286481259999
  H   3.68186790714276      1.49741367942112      0.00329422351838
  H   1.45331742134293      2.56945246880436      0.00357565117879
  H   -0.90794988420217     -2.26564786298439     -0.00654501536256
  H   -1.28314295647628      3.10228127228772      0.00284309480433
  H   -3.75177943596025      2.94391898500568      0.00129707935760
  H   -4.86498926931098      0.74793368755175     -0.00293366770450
  H   -3.55333640544437     -1.34502123553723     -0.00602435799265
  H   1.88947813525320     -2.40417041251037     -0.00464054002918
  H   3.89115968286275     -0.95598207570393     -0.00067262916544
