25
Coordinates from ORCA-job 15304optt
  Br  1.30597322739067      0.07386990412278      0.22724039156947
  C   3.20071804657071     -0.02256886967371      0.04687551752079
  C   3.78844719035435     -1.27008053451725     -0.11098515379445
  N   3.05971164629817     -2.45399907065089     -0.18297749689691
  C   3.60933275274773     -3.69802890739199     -0.07502714570230
  O   2.95483555051159     -4.71112838265911     -0.09155968263078
  C   5.11211479157470     -3.71936304923673      0.11670086618028
  N   5.77072594121635     -2.55257144794243     -0.45394979024012
  C   7.19931555901307     -2.64904908752875     -0.55674158152018
  C   7.90922675369923     -2.46562041454082      0.77377757837761
  O   7.34250714847853     -2.24418961255470      1.80679118208523
  C   9.43473277596431     -2.58830779624915      0.77085832938742
  O   10.04585997863116     -2.83103321198939     -0.22777409509227
  C   5.18640875046218     -1.31807319348274     -0.24697527411849
  C   5.87801826594473     -0.10852027363734     -0.21798010989929
  C   5.16800609691196      1.06958101276646     -0.06317614633706
  N   3.84746727366783      1.11901375272783      0.06902145032795
  H   2.04989008137456     -2.40347851204747     -0.21928922408317
  H   5.47905371121051     -4.61684159957540     -0.37872593377691
  H   5.30812859543142     -3.81462245681608      1.19287272823489
  H   7.59702335483183     -1.92539707802069     -1.27236628925721
  H   7.47423216781744     -3.62996417276135     -0.95335965443153
  H   9.90567802201703     -2.44025783670561      1.75843381768157
  H   6.95393193627581     -0.06839403215909     -0.30087780497668
  H   5.68866038160405      2.01902487052367     -0.03480647860785
