24
Coordinates from ORCA-job 15308optt
  Br  1.18715279075625      0.06948561135581      0.20035591890447
  C   3.07777732471187      0.04465068031374      0.08557546153739
  C   3.77560665915360      1.27119214399891      0.12379822746425
  N   3.09172454244408      2.48251086513733      0.24497250023551
  C   3.63710438417193      3.70516370345039     -0.01328424103443
  O   2.99315306569940      4.72493492630828      0.00030780201827
  C   5.11741474739261      3.71094339124591     -0.33835536420649
  N   5.81771322909475      2.52607998234692      0.12135272656046
  C   7.15891083096358      2.62880591834646      0.49738310286717
  N   7.91875617084144      3.63072655204455      0.38446180122241
  C   5.16686648132374      1.29996693282498      0.06500113484631
  C   5.82064064977249      0.05874291540876     -0.06256609797670
  N   7.15396461836107     -0.25275931618516     -0.20734345679997
  N   7.26829892755268     -1.51850535651224     -0.31240282928913
  N   6.05333246981470     -2.07775260424192     -0.24509557372695
  C   5.09060348502523     -1.13140475821970     -0.09046416977675
  C   3.70055292265565     -1.17667901362020     -0.01081048258976
  H   2.09291452533214      2.46940754033895      0.40006784356629
  H   5.52375506121606      4.58560742778077      0.16597536561426
  H   5.22883344004718      3.86179272065076     -1.41844525536693
  H   7.54003419029311      1.72056135524853      0.95010060109505
  H   7.49395833291140      4.42187566419711     -0.09317302020172
  H   5.96853062432919     -3.07788964373018     -0.31346149376214
  H   3.13440052613577     -2.09545763848878     -0.03495050120089
