26
Coordinates from ORCA-job 15307optt
  Br  1.01666868997126     -0.12259194076247     -0.46706571730032
  C   2.86036194798137     -0.00139163060831     -0.12674442943960
  C   3.52175750329715      1.17291455573636     -0.03015528115481
  N   3.05273229480606      2.49817081653686     -0.07897539984604
  C   1.79925402223315      2.93179457272367      0.35413751595760
  O   1.44149471837853      4.07241687490363      0.25578828604672
  C   4.14290014209429      3.40568321614534     -0.22625203249071
  N   4.14004523946189      4.64678304114830     -0.37398976391186
  C   5.40224398826269      2.58093078097076     -0.11251584646843
  N   4.89685193026812      1.23015087717891      0.06862305666462
  C   5.64574923798239      0.08153736602427      0.09812359214563
  C   7.13467554932793      0.22658698842037      0.14877178249604
  C   7.76311894612354      0.58699289747575     -1.18225042031817
  O   7.14281372119424      0.87995013832116     -2.16289944790893
  C   5.03674685402384     -1.11736990214443      0.07477836443073
  C   3.59183051908207     -1.27233439451392     -0.04780492490874
  N   2.96192041238826     -2.38341162960785     -0.10824006560341
  H   1.20052571983764      2.14378789000291      0.81499735345964
  H   3.19775801019501      5.02791800624712     -0.41634813285415
  H   5.98592114653702      2.92258161140389      0.74370574839898
  H   5.99554257875452      2.66498635751313     -1.02289757961566
  H   7.58232645904589     -0.71154234087551      0.48325006937019
  H   7.45008274288250      0.98381419824916      0.87548884642923
  H   8.86865193484346      0.56696471995877     -1.19174548611701
  H   5.63924482751778     -2.01499100899786      0.12022969373476
  H   3.60978086350930     -3.16633206145003     -0.05400978119630
