22
Coordinates from ORCA-job 15312optt
  Br  2.35091933583087     -1.35990467817810     -2.58013057732636
  C   3.30951754405957     -0.22831300496461     -1.43494468343712
  C   3.30325404623460      1.09727200135191     -1.47315078016200
  N   2.35304156813988      2.05326308210215     -1.96748698493672
  C   1.21583583511622      1.89876119876691     -1.45777516272072
  O   0.50145011791879      3.02856857073805     -1.05619532496483
  C   0.97462939391734      3.36376790325509      0.18965731643442
  N   1.53798759017772      2.48159074586482      0.87976281382970
  C   2.36945670064710      2.56248607662021      1.99784646776785
  N   3.46317712014941      1.90820315522745      2.04943184026860
  C   3.75243448533172      1.22375826994804      0.86841912463017
  C   3.77609646183297     -0.25939167176214      0.87292800012730
  N   3.76151190313147     -0.94843052055015      1.91805117781537
  O   3.92438161066858     -0.84977386462086     -0.38988934026219
  C   3.89255878602348      1.82545758357035     -0.32805111856168
  C   4.15765219019165      3.27390446281359     -0.55788673483070
  O   3.97572052304325      4.16894620166614      0.22442404937419
  H   0.77334021979812      0.95825796852941     -1.13271615613218
  H   0.83282633417920      4.42215633215734      0.40239052680471
  H   2.06131627633661      3.14502268027502      2.86280298928704
  H   3.81601910213322     -1.94413443000864      1.70545079021204
  H   4.58587285513820      3.47253193719800     -1.55493823321690
