22
Coordinates from ORCA-job 15315optt
  Br  1.60188804541968     -2.47106258066395      0.04091556775893
  C   3.12373771185121     -1.39433449094665     -0.20094479705189
  C   3.81493829997614     -0.93495090175415      0.86339708349012
  N   4.91480603598891     -0.09820818461290      0.69707267056501
  C   5.71541938887201     -0.11919557358038     -0.43240965644273
  O   6.65874589166250      0.59107085628660     -0.61096690258530
  C   5.28284122741433     -1.30920494615500     -1.26599519633458
  N   6.12375975234198     -2.23619303913436     -1.30925703097920
  C   6.00173941545414     -3.59246355596490     -1.44468818199176
  N   5.45092595236905     -4.39715828950462     -0.61864166490128
  C   4.73464589577303     -4.01473095709330      0.49826087771398
  N   5.04617613144652     -3.07779978897779      1.30169365412906
  C   4.12711983627089     -2.76762455227332      2.32028795473247
  O   3.78385289667276     -3.46472475644826      3.22866404278121
  N   3.65282001430947     -1.43255923588930      2.17330431247122
  C   3.80663879721204     -1.48070493247917     -1.50396158190418
  N   3.38655665887240     -1.87706665709834     -2.62461559166024
  H   5.27628050479859      0.36970912527464      1.51753608701198
  H   6.55635781924449     -4.00986354281204     -2.28056317012049
  H   3.84021541128142     -4.62316813000039      0.65312754247057
  H   2.77891096959324     -1.27390147345119      2.65695327657516
  H   2.37962334317513     -2.05286439272121     -2.60516929572806
