24
Coordinates from ORCA-job 15310optt
  Br  1.22288095425141     -1.66775482449868     -1.09823569244089
  C   2.32423750809325     -0.29340423685046     -0.48278913117188
  C   1.80525583535571      0.85016142149605      0.01136784822327
  N   0.44102339035456      1.11570056431803      0.02629656612033
  C   -0.12618195412415      1.38335092693376      1.10666145544645
  O   -1.35826813687379      1.95019335060503      1.13658681177955
  C   -1.68052098238083      2.95778035145158      0.25651640229308
  N   -0.95479103277177      3.69012111887282     -0.44822767616585
  C   0.44896904914552      3.66977593383685     -0.59046327086412
  N   1.02584210250328      3.50786108238644     -1.70141926232305
  C   1.25852463230838      3.95451489287968      0.62150058879597
  C   2.26409817823653      3.19035437555906      1.04546282868086
  C   2.71315194993410      1.89277228848145      0.49462959166804
  N   3.98819884187978      1.69351604052253      0.52591675200904
  N   4.46670121230708      0.55528226574343      0.04071469393928
  C   3.76743855501030     -0.49855634539699     -0.54415420959741
  N   4.30149863466009     -1.53340501692938     -1.05523807993490
  H   0.26313195388590      1.21187128824408      2.10975759931137
  H   -2.75569459828941      3.09819147814765      0.28118203544768
  H   0.33941909782893      3.34194079879171     -2.43877061317317
  H   1.01905179120322      4.86556061837994      1.15832289110451
  H   2.86172742295193      3.53507902587568      1.88170452757071
  H   5.47229620685400      0.48753567285558      0.07628340229074
  H   5.31800938767597     -1.50544307170585     -1.01660605900958
