21
Coordinates from ORCA-job 15316optt
  Br  5.48723766844461     -1.23724472160092      3.17927268749722
  C   5.13223300994440     -1.39087756532692      1.34932054172267
  C   4.88205274000112     -2.54574759021979      0.72401437319087
  N   5.25316249830382     -3.82658549517507      1.22152619675981
  C   6.62590210287267     -3.96222565581283      0.82406124883310
  O   6.95298014142962     -4.14843614597348     -0.30568913044315
  C   7.62907685031409     -3.60629676387767      1.90734070544346
  N   8.49609406256282     -2.71077084468621      1.74903564445181
  C   8.76107150130886     -2.01512237960851      0.56949284216852
  N   8.38676281913313     -0.85376040218255      0.25543489503871
  C   7.61698254938316      0.06327664237713      0.97186496961728
  O   7.97104266359683      0.59446587093631      1.98703275593011
  C   6.36249244316552      0.40315434509003      0.20303608056955
  C   5.24403657695653     -0.27497700094468      0.40806726346466
  O   4.18075176335321     -0.24097979452195     -0.45677714225665
  N   3.95091771558226     -1.49682921019338     -1.11245580600139
  N   4.36525134729674     -2.51486516995371     -0.58740782962197
  H   5.16130199488205     -3.83508065279982      2.23358304191182
  H   7.53610933774245     -4.08359771226717      2.88349466324595
  H   9.45525227638992     -2.54054806393808     -0.08514816779580
  H   6.43728793733611      1.09404831067929     -0.62709983372659
