23
Coordinates from ORCA-job 15321optt
  Br  0.57382053784186      0.76739585839165     -1.92241697529001
  C   2.13172033907136     -0.10747747159208     -1.34475445729378
  C   2.95718050230192      0.40175670982837     -0.34444174023651
  N   4.05346044199835     -0.28367956638456     -0.04142957632754
  C   4.44562804466859     -1.26478925305585     -0.82792677984450
  O   5.76405023082625     -1.60285710404699     -0.67042913543344
  C   6.37016082842811     -0.50559140557259     -0.06028266523948
  N   6.52208450150056      0.54919128656664     -0.71606270089542
  C   6.34834965739547      1.76599397697859      0.01167967561488
  N   7.04880659945069      2.34562846232414      0.87440830460692
  N   5.08210657085281      2.24527413076353     -0.41557288152698
  C   4.00299666377588      2.45266732273770      0.45026229916932
  C   2.87920952945102      1.69795409233006      0.39349419344695
  C   1.70336238826756      2.04870418243921      1.11587673169963
  C   0.71479932497468      2.32766678758844      1.73570736401350
  N   3.72248199486667     -1.86200093208157     -1.74998939479484
  C   2.53854589591022     -1.29038020387443     -1.96389256903117
  H   6.53894318791110     -0.64310957373769      1.00762896574465
  H   7.90176354985120      1.82729931269207      1.06714438109361
  H   4.80842962193887      1.72610263648353     -1.23760202290184
  H   4.08257040461616      3.28788541030155      1.13447038449633
  H   -0.16006573116614      2.57739960080405      2.28694378754431
  H   1.89959491526677     -1.75503425988378     -2.70581518861458
