21
Coordinates from ORCA-job 15320optt
  Br  1.82881755221546      1.46990507138918      2.03488388459760
  C   2.78624438877393      0.49874966172219      0.74844386534363
  C   2.64824214155795     -0.83679605202579      0.64139575758438
  N   1.81035731087128     -1.60641106776029      1.46345656522535
  C   0.75949492422543     -2.21272242003712      0.71488268306739
  O   -0.17875785472709     -1.61315372349667      0.30308068382093
  C   1.10676988849578     -3.63264356364252      0.36181549767927
  N   0.29579663615935     -4.57627645235513      0.54377545567264
  C   2.49205635123697     -3.74695827540773     -0.21657404084462
  N   3.38478469690820     -2.87592025698869     -0.50516233701044
  N   3.39596837795174     -1.54844729775504     -0.32155328399582
  C   4.41651503814940     -0.90722874183197     -1.13698979314538
  O   5.09979923107584     -1.55020440386987     -1.87966001928146
  C   4.46861314818950      0.53771515755276     -0.98233048443289
  C   3.69863345986942      1.20035047303232     -0.10619767901282
  C   2.84963533219908     -5.10216952673491     -0.58041577480274
  N   3.03748028351991     -6.20904621706576     -0.81200887158900
  H   2.34207409969931     -2.28600679558832      2.00018848284995
  H   0.67756466584486     -5.48345979739020      0.26127443308090
  H   5.17961350685886      1.04050023703617     -1.62186737555366
  H   3.76429682092475      2.27622399121742     -0.01343764925321
