22
Coordinates from ORCA-job 15328optt
  Br  1.10807334016414     -1.86856909634421     -0.82946187193224
  C   2.68462205944694     -0.92533982796774     -0.53446295292143
  C   2.74821964162135      0.40956227942848     -0.34157680211649
  N   1.76301620374282      1.38344043406848     -0.41362385347680
  C   1.48336845683435      1.98562843884671      0.65708739976751
  O   1.29334496643610      3.31235313888102      0.61780466712290
  C   2.23150385652616      3.89480308134944     -0.26874077587331
  N   1.91463496909933      4.71827412487851     -1.14059089868654
  C   3.72741690432078      3.62720535887287      0.06206051054585
  O   4.35938919947753      4.62443009071093      0.31268159700743
  C   4.41671669457123      2.31222871769674      0.05956266258976
  C   4.02285631944438      1.00023244835138     -0.13580811029398
  C   5.18904110699731      0.14446903009373     -0.10738284448688
  C   6.32732915256933      0.98991001507854      0.13928876188831
  C   5.85888420245911      2.26423690839444      0.24125278798123
  C   5.00622018233497     -1.17653020724951     -0.32501912235657
  O   3.79031447890855     -1.69881872567170     -0.53713811629475
  H   1.47063036019032      1.56146970956969      1.66252103499074
  H   0.90401222492646      4.83679035984919     -1.19942930651583
  H   7.35233040236491      0.66643879665376      0.22277606847872
  H   6.45007635340270      3.14913483944924      0.42102809401919
  H   5.77399892416116     -1.93534991494001     -0.36282892943681
