23
Coordinates from ORCA-job 15322optt
  Br  3.44136252899157     -1.22211621952503      1.66085897743064
  C   3.42435671958969     -0.24731319692518      0.05721738716022
  C   2.89934811194449      0.97679778406984     -0.03913765780737
  N   2.29406883890232      1.71312814162731      1.00873838221910
  C   0.95906204477666      2.07941891894430      0.81519212599236
  O   0.11721262733596      1.32103035696612      0.42521917333804
  C   0.67127014018965      3.54572456299234      1.08482917302697
  N   0.77678194895868      4.08772531484198      2.21914691980757
  C   0.14279621407978      4.40736266035064     -0.06462494885791
  N   -0.50350373380613      5.47014634806057      0.14201777396495
  N   0.29908995189115      3.93080053911051     -1.36023809348368
  C   1.18529663684787      2.93925646308305     -1.74205442115778
  C   2.45356479378936      2.93693375730252     -1.33417238462641
  N   3.12836965239248      1.68692171757438     -1.24959457406656
  N   4.50228269160621      1.77303777070268     -1.62604933656366
  N   5.15226048762460      0.75634138220116     -1.68280650499353
  S   4.34880436546167     -0.78886895692436     -1.29879251592790
  H   2.87642461563933      2.46727401781273      1.35545936391239
  H   1.06690259611625      3.42805130896992      2.94199499510731
  H   -0.59368678541878      5.63602702958442      1.14262588419112
  H   -0.40164522575412      4.25920732061163     -2.00721784178745
  H   0.78262421976438      2.08555047979512     -2.27834195061751
  H   2.91895655907692      3.80656249877330     -0.87926992626092
