22
Coordinates from ORCA-job 15333optt
  Br  1.79759361578156     -1.34103203202327      1.10473049940656
  C   2.90908689176903      0.09479703565263      0.69133229271786
  C   2.54873227434780      1.38732215656805      0.68421058039908
  N   3.65244739337609      2.23542379204693      0.27479947977673
  C   4.71370199138915      1.84988489840248      1.13251278710490
  O   5.29635159032390      2.83172129101990      1.86093525796986
  C   4.39921196015740      3.71365522077354      2.45401224077916
  N   4.45538011276750      4.95231544537411      2.33080268180369
  C   3.38269335112402      3.09661887334198      3.41732169117959
  O   3.60429276394772      2.05168409528113      3.94986694007206
  C   2.13747757657575      3.96486209672813      3.75474210131593
  O   2.06232515569347      4.52165916616098      4.81368029625274
  N   1.19172588492736      4.02816221107891      2.75775751434978
  C   1.46796705721030      3.37995759342903      1.53772588685906
  C   1.55519713029436      2.04406212768919      1.51242578506735
  N   5.07490105812709      0.64316428725410      1.27963221926984
  O   4.21828722747936     -0.21921994026044      0.52931925096931
  H   3.92418095956989      2.02802929812855     -0.68397106602661
  H   5.20933888490883      5.24497401111839      1.70852363844498
  H   0.54306417457354      4.80099534469228      2.82386370546146
  H   1.82758490869992      3.99393992971888      0.72024742653056
  H   1.11345803695594      1.46402309782448      2.31552879029608
