22
Coordinates from ORCA-job 15346optt
  Br  1.01638412568226     -1.91458740903381      0.18326718981697
  C   2.48829684748530     -0.80872725041879     -0.07269868368950
  C   2.49665965387958      0.48340999499604      0.29633383957049
  N   1.45771559921419      1.05381508344334      1.01413447758310
  C   1.20714092296657      2.27604790569377      1.15825530359523
  O   1.73200691589113      3.36705246420259      0.55435867302360
  C   2.60520249659772      3.25799073127545     -0.51874297436494
  N   2.45322713034781      3.92692878873433     -1.55955390314736
  N   3.75716180595714      2.48072676037479     -0.34110186581144
  C   3.71741261567044      1.25416806139075     -0.02649216111853
  C   4.97112746486955      0.43345305688773     -0.12142141753265
  N   6.21034020114242      0.91969380112742      0.17009581351525
  C   6.72443649550109      2.05729543114689      0.83457871097973
  N   6.26620544346341      3.21433764248785      0.97774513187533
  N   4.91420593705658     -0.77902397708867     -0.53680489313718
  C   3.68716973532167     -1.40838718440277     -0.75197220841107
  O   3.60248966941061     -2.41551185608750     -1.39593534816695
  H   0.43316686103146      2.59185869718736      1.84933367525380
  H   1.57384490204149      4.43980394359239     -1.54369990768146
  H   6.89382678103885      0.18274523749881      0.04228578783670
  H   7.69979393810445      1.81322446750940      1.25365634435183
  H   5.38418445732621      3.34568560948262      0.48837841565902
