21
Coordinates from ORCA-job 15342optt
  Br  1.26073709379816      0.20397451126730      0.77687582679614
  C   3.01508206761784      0.02627133257382      0.18759696994321
  C   3.66219998430539     -1.12072856145067      0.09376095839070
  N   3.33635164833302     -2.44131053859813      0.32287684540604
  C   4.37446487577314     -3.28534299440495      0.00205721155118
  O   4.39358359439177     -4.48147344285024      0.03855953591081
  C   5.52698761477527     -2.38073350843734     -0.41461817210562
  N   6.67540205231660     -2.70904772641199     -0.79059713769106
  N   5.01257268181982     -1.08550009730492     -0.31056894259413
  C   5.63895207678976      0.12920473852510     -0.08976845795512
  N   5.03457960746755      1.23442352962579      0.05132728935980
  O   3.64387045242240      1.19318371354178     -0.18186085082409
  N   7.03539850911545      0.11490439786404      0.06460132278472
  N   7.85802021796805      0.65135574216008     -0.82094515425285
  C   9.05125042268087      0.35340349156915     -0.34397079807325
  C   8.88956512838290     -0.37904756244081      0.84668467099174
  N   7.59956721326560     -0.52197228972219      1.07785121724570
  H   2.41252375320884     -2.75449385564503      0.57850692283751
  H   6.75600062196917     -3.72643766370019     -0.76101263594407
  H   9.94582143670341      0.66112904181041     -0.85704593121882
  H   9.62306894689493     -0.78976225797100      1.51868930944145
