22
Coordinates from ORCA-job 15352optt
  Br  0.96237561064757     -1.75461214219461     -0.24561451315663
  C   2.54613087465428     -0.76552829452529     -0.10134945519919
  C   2.62297665824494      0.45072680013452     -0.66864017783764
  N   1.63028881307110      0.93198364837188     -1.51580192808465
  C   0.76913470112200      1.80815145188819     -1.26244900061812
  O   0.66350535508570      2.56666054978083     -0.15483041661871
  C   1.84102276773541      2.84438665368356      0.53341399058223
  N   1.94282950511909      2.79230328038708      1.77420416042969
  N   2.84136037599433      3.35351806104930     -0.30145935617624
  C   3.75549995506094      2.62376615871125     -0.76168074723040
  N   3.81382182066651      1.22173639144330     -0.61678201401696
  C   5.04993938686972      0.66944464636397     -0.30457148207502
  O   6.07441236229718      1.28684031231700     -0.41260345132999
  C   5.01845756213839     -0.72859090555591      0.28530724705655
  N   6.09370537847392     -1.30491716877678      0.58921925134336
  C   3.69424264859893     -1.39159948277453      0.55525769550117
  N   3.59167317211064     -2.44909830649644      1.23986614986172
  H   -0.02499302274180      2.01672715075759     -1.97077970174074
  H   1.08471464432528      2.45376771869080      2.20411447563326
  H   4.59478699218481      3.05692093752094     -1.29234171686015
  H   6.89181658560659     -0.70742549398278      0.35419287706472
  H   4.51729785273444     -2.73416196679388      1.56832811347173
