26
Coordinates from ORCA-job 15354optt
  Br  4.15628058661778     -0.57121142289460      2.89890353779829
  C   4.82311461802557     -0.55505117219530      1.14499168356883
  C   6.04216921836221     -0.03252447496015      0.88089778501972
  N   6.48768978475084     -0.05048619703577     -0.42848112845221
  C   5.93957055353667     -0.89354429301330     -1.34648716323186
  O   6.75553257983749     -1.19560886810074     -2.42211063007400
  C   7.80646156123304     -2.03298802949843     -2.01641510200772
  N   7.82886295822586     -3.26176986771397     -2.22734770812081
  N   8.80688189044913     -1.36044790584846     -1.29582181297796
  C   8.72955773890223     -1.41845142238550      0.11866673483765
  N   8.36842243283515     -2.38727763226605      0.82238839950395
  N   9.09991574781220     -0.15723939732727      0.69896382591993
  C   8.33647980663085      0.42992714963685      1.71943570624345
  C   7.00299262324608      0.50871843394199      1.83664076278764
  C   4.74508203861087     -1.46113866128624     -1.14086963728899
  C   3.99954120116665     -1.17831012247259      0.09193337597790
  N   2.79096594788675     -1.51750694664233      0.32506474600828
  H   7.28934378682228      0.50789885207924     -0.66515042361501
  H   6.96441429727967     -3.56829445995726     -2.67203897649381
  H   8.95621791576047     -0.41608580626570     -1.62236608594422
  H   8.12842068726222     -3.20127725191241      0.25628634119562
  H   10.09299951166756     -0.10811302947948      0.87730664796714
  H   8.93898135728494      0.90961699836907      2.48011204668157
  H   6.60895679075626      0.97566677804660      2.72672786351243
  H   4.35267485181802     -2.16966904558675     -1.85633386827240
  H   2.37646951321910     -1.95983220523142     -0.49289692054339
