22
Coordinates from ORCA-job 15355optt
  Br  1.43653460458885     -1.30922606910135      1.91307299477911
  C   2.72808208753816     -0.49935010330562      0.84584662700186
  C   2.85421882451271      0.83036463433252      0.74544552705874
  N   2.00126493676274      1.76836081890518      1.38316553269735
  C   1.11466932819997      2.37422430273272      0.47602369038354
  O   0.38598789011942      1.75592844779596     -0.24084056478878
  C   1.36714951028635      3.86397995231690      0.31732806716909
  N   0.94936656183131      4.72090707447331      1.13231944944468
  N   2.11660799578981      4.10855527676254     -0.85989340923507
  C   3.21681088767189      3.54820947822822     -1.05973743940354
  O   3.91026919900369      2.81187334618904     -0.11390963985485
  C   3.87829365960176      1.42982597166259     -0.14327910505502
  C   4.74711823798450      0.71481296481998     -0.85528917803550
  C   4.72337288630947     -0.74610725519800     -0.77372206482846
  N   5.55756084529401     -1.52394230211037     -1.32502280206225
  C   3.62383213101646     -1.40995456295159      0.06551452564659
  O   3.49473243527781     -2.59811124940677      0.08733452718548
  H   2.52525455181152      2.46078824922741      1.90676168014700
  H   1.22910257788755      5.66259898008496      0.85409195900145
  H   3.75122166701045      3.67073371467472     -1.99759486028643
  H   5.49724602644903      1.19933077841469     -1.46791366833623
  H   6.25130315505249     -0.99880244854707     -1.86070184862876
