23
Coordinates from ORCA-job 15358optt
  Br  3.22188736951138      5.95321054856184      2.64632311515392
  C   4.14735429836594      6.40178210761562      1.08380519113636
  C   4.87901695526667      5.54773394440190      0.37105082754659
  N   5.57979480316730      6.07138319365656     -0.75557055479138
  C   5.82760213988785      7.40977637813479     -0.86610259664853
  O   6.60438977376919      7.86895337476510     -1.66867606549783
  C   5.00973594330365      8.31591044824570      0.03037607912734
  N   5.10782726908554      9.55764648796873      0.03942714713722
  O   4.04831279285082      7.72132397675494      0.80365763367357
  C   6.23925626675498      5.23478339283354     -1.76406385394962
  N   5.61407927964404      4.62905575456062     -2.65692247994326
  N   7.64462820911110      5.00695989703940     -1.53338103451949
  C   7.48268918149776      4.08817240261530     -0.45044216843717
  N   7.33338047177250      4.51148882010813      0.72491110076885
  C   6.39092527902281      3.73101532217551      1.50496766680951
  C   5.03512506673075      4.10422028539622      0.87371880578806
  O   4.13608173430556      3.32564301615782      0.76611003707523
  H   5.82802663564273      9.83668311336065     -0.62786585125546
  H   4.61519292011784      4.83066727459930     -2.61862874831450
  H   8.05012758265477      5.87272588393311     -1.17830317027688
  H   7.21222309319816      3.08187277019730     -0.78564502474239
  H   6.40256402604829      4.03022545585037      2.55339069132819
  H   6.49977890829026      2.64576615106742      1.42886325283167
