22
Coordinates from ORCA-job 15361optt
  Br  1.70876753381179     -1.16102570640086      2.13498734391018
  C   2.90535474713832     -0.42451610815592      0.89495160151922
  C   2.75246357428358      0.83342669575942      0.43997671265080
  N   1.73305298509381      1.65811653859221      0.87558625728523
  C   1.12099563386988      2.52592246047606     -0.01487237026023
  O   0.92358670832621      2.27286282884146     -1.16657233010913
  C   1.04672922024097      3.90029125417773      0.57753941851502
  N   0.05493833068022      4.39917355461988      1.14257488595975
  O   2.27439679637314      4.50609364224595      0.49340119709797
  C   3.28895850754408      4.10362741330800     -0.34054144505589
  C   3.82662810016044      2.93323672321574     -0.71641531511428
  C   3.74616253934021      1.48134748787026     -0.46353483183726
  C   4.72414726457606      0.73038143840144     -1.00281849737524
  C   4.91521732815244     -0.68426406887032     -0.66821736181567
  O   5.78741510633822     -1.35357397643438     -1.15045471016205
  C   3.98661724338305     -1.29928818290440      0.40999444573586
  O   4.14513898582374     -2.42961440565713      0.77163895536380
  H   1.44030657328369      1.63616112340204      1.84321219873624
  H   0.25364527440274      5.33122873449594      1.50720980633713
  H   3.75504093808139      4.99373941634137     -0.74148674923841
  H   4.64369858674053      3.13584692582141     -1.39917156294605
  H   5.47073802235541      1.15982621085405     -1.65798764919698
