22
Coordinates from ORCA-job 15362optt
  Br  4.10717027365274     -0.92413364801119      2.80743363314392
  C   5.18676119428658     -0.89094992834226      1.26637750909254
  C   6.27870479310409     -1.82645799200407      1.17354549744247
  N   6.97076447933266     -1.77910348590727     -0.01258527350940
  C   6.76325252195203     -0.89254990961240     -0.99825890543416
  O   7.52727458317602     -0.96073769838099     -2.11529592585568
  C   8.76087625441195     -1.54301126127710     -1.92572866803130
  N   9.24574269163777     -2.44461642563582     -2.63145561293167
  O   9.38774605415106     -0.96220263642653     -0.88302620398389
  C   9.95743494973930     -1.78352691953544      0.08413585581558
  C   9.22078137752690     -2.63931191091411      0.78533789142584
  C   7.76915096055994     -2.89066215151628      0.59048076554876
  N   6.91237309669469     -2.77130318452325      1.80361737267788
  C   11.34827773070758     -1.55494096676939      0.29148378744947
  C   12.51522348808660     -1.34792706028938      0.46085443422698
  C   5.73644677344601     -0.01191625662447     -0.82015010494488
  N   4.97162501889464     -0.06228982378868      0.31375908403107
  H   8.58843668124764     -2.74931953146796     -3.34420362447336
  H   9.69954883146224     -3.23281762824093      1.55204507994142
  H   7.57485880009271     -3.82307277539948      0.05528650565102
  H   13.55383399988562     -1.16854627700807      0.60864754959036
  H   5.49971544595113      0.73239747167511     -1.56330064687294
