23
Coordinates from ORCA-job 15366optt
  Br  0.76957582218951     -0.91663775372020     -1.03583423785042
  C   2.50516887997467     -0.47706279241028     -0.49317637161173
  C   2.84193686421597      0.79920729436461     -0.24483781433812
  N   1.93001944446395      1.87138740736439     -0.40483955495470
  C   1.91766837151844      2.79514652361609      0.62942267134858
  O   1.77566795337221      2.50990280017875      1.78227464824463
  C   2.39773543094071      4.14899283590489      0.18471032372431
  N   1.69257070028238      5.16820920295809      0.01944790897018
  S   4.17472472351923      4.06537248192258     -0.06298287194457
  C   4.71707496316301      2.42551989393229      0.20895614382148
  C   4.20947021983982      1.16870701213060      0.12887653050208
  C   5.13644958346684      0.07825587690101      0.36876642545610
  C   4.81406964921028     -1.20637627547467      0.14447306189083
  C   5.75563084631247     -2.25616867644366      0.36187152299353
  C   6.51459595324827     -3.16947365900375      0.53007310959154
  C   3.47322988426921     -1.58721771455640     -0.36899327758384
  N   3.13033337995879     -2.76561004234737     -0.69044741634259
  H   1.88907115281023      2.25653799785782     -1.34052800199277
  H   2.21800979570899      5.98828712122341     -0.28550970416608
  H   5.77154243694516      2.48825129450469      0.45701242562650
  H   6.13102726673068      0.32431418912812      0.71853390253461
  H   7.20089215429811     -3.96760437957800      0.68744902301050
  H   3.89953452356103     -3.41894063845303     -0.53671844693006
