23
Coordinates from ORCA-job 15364optt
  Br  4.29223321000162      1.86575127399653      1.59388894363430
  C   4.69241132350864      0.46840231305825      0.41481306702890
  C   5.90040355783053      0.35060834927609     -0.15882879689722
  N   6.08871923711177     -0.72419284070386     -1.02030806840409
  C   5.36675591495147     -1.84599387646274     -0.73121864685479
  O   5.97015684334943     -3.03701198936887     -1.05718893558945
  C   7.25970467914468     -3.25591788219023     -0.66907609619962
  N   7.97702573722305     -4.18775791674982     -1.07191864279330
  O   7.70742597479760     -2.32102739085720      0.22804574538761
  C   8.78826404367623     -1.58947331593235     -0.21406023520023
  N   8.92995984793602     -0.36378619521618     -0.04073710456161
  C   8.14878759031674      0.54021114954578      0.70750475819242
  N   8.49186514552268      0.98276047836253      1.83323653527862
  N   7.03248332875930      1.14030023533128      0.05255915534563
  N   4.23616118073572     -1.84338665436885     -0.17847603271999
  C   3.68274435646012     -0.57897109048833      0.15876967897114
  N   2.44862479894875     -0.38709719167872      0.34670614841818
  H   6.94147795413517     -0.76073975998969     -1.55357688577171
  H   7.49468036284705     -4.76869666662965     -1.75250002412801
  H   9.50638508736390     -2.17990487317521     -0.77719755667868
  H   9.37650137485658      0.58305326770158      2.13817271219992
  H   6.79022994062006      1.97689151433947      0.57582579839584
  H   1.93599850990279     -1.25302093779981      0.18756448294616
