20
Coordinates from ORCA-job 15373optt
  Br  2.02563744935970     -0.12100313439456      0.37464469186279
  C   3.40332354393205     -1.35006713795971      0.32332890818527
  C   4.35234504769054     -1.49998070926669      1.30553455782861
  N   5.20614822339056     -0.38748046542563      1.21625221312876
  C   5.66695143545600     -0.28616489979831     -0.10054668009708
  O   6.46118784169155      0.49828347664298     -0.51200552665202
  C   5.12319919343579     -1.47400935970281     -0.99001354095208
  O   3.75316700207422     -1.82507721490321     -0.88560155799398
  N   5.94496439082966     -2.19396949950100     -1.58273856633295
  C   5.52597727016832     -3.49018271942813     -2.00239204546640
  O   4.75358461549810     -3.71400449668252     -2.88062503282119
  N   6.27830494941831     -4.46203089196420     -1.35440353078745
  C   6.33012724517859     -4.98515637633031     -0.22653334589484
  O   5.55819313679450     -4.82254725740440      0.88496706924411
  C   4.56945805710312     -3.86611748579605      0.92881541529004
  N   3.35583383405146     -4.07276189829431      0.72945691415255
  O   5.12323113104514     -2.69097363023494      1.24933477317532
  H   5.75671165134805      0.00945106624635      1.96673988372898
  H   7.07938129664302     -5.73915630860228     -0.00641789966027
  H   3.17127268489125     -5.04605105720024      0.50720330006184
