22
Coordinates from ORCA-job 15370optt
  Br  1.70311357026072     -1.75239961009558     -0.22551429164064
  C   3.48912912322081     -2.29002875339416      0.29678234761276
  C   4.22127675499734     -1.47580267446254      1.29504692757385
  N   4.76003197300412     -0.24890120298293      0.93392359170959
  C   5.25608385977071     -0.16253664754070     -0.34814475838866
  O   5.65627723407382      0.83575596620647     -0.86947293642316
  C   5.32471551965725     -1.53812514827036     -1.03113213138284
  O   4.26999417964684     -2.42712810927590     -0.85648785123813
  N   6.33973322671137     -1.89936898688985     -1.68735034456865
  C   6.26323162908572     -3.29676848189913     -1.85092969858505
  N   6.73643286215111     -4.00371441619623     -0.90342069677275
  C   5.70050187146943     -4.86856050796813     -0.51057628595237
  N   5.32089738259473     -4.69632855895980      0.68488343309348
  C   3.94991346155975     -4.74201073541121      0.93801564872969
  N   3.19368244385751     -5.73874502048946      0.86003589934446
  N   3.47433007207536     -3.40817255772501      1.30049307728348
  C   4.32285036296485     -2.54026181302701      2.09152676401692
  H   4.70996075310562      0.59375526110152      1.48826944891426
  H   5.57321749937666     -3.65908964972364     -2.62199065520616
  H   5.10393875175008     -5.38942799081972     -1.27066138128321
  H   2.24211902506148     -5.47396042337942      1.10966637301509
  H   4.78456844360469     -2.80317993879718      3.03103752014805
