21
Coordinates from ORCA-job 15372optt
  Br  1.99972616516832     -2.51390862248002     -0.92371462389834
  C   3.47827140100623     -1.50738215500557     -0.40919830430360
  C   3.98508392682982     -1.35522021758755      0.81898053695906
  N   4.91257092938809     -0.31102721122468      1.01176061627265
  C   5.65479392831397      0.24859701942700     -0.00654342126366
  O   6.36933420844665      1.20214380139642      0.07841775802326
  C   5.46255893884371     -0.71104878978307     -1.16738689605355
  O   4.10592374893969     -0.90605822761207     -1.45644493538647
  N   6.35673957460137     -1.50667221310865     -1.49132471196074
  C   6.11604603664213     -2.87561251164048     -1.75499021659440
  O   6.32117803117342     -3.47043385042677     -2.76191451645376
  N   5.71481474626891     -3.40968591159345     -0.48943899078581
  C   4.73362296729229     -4.20699744902133     -0.47141237072439
  C   4.08073194648518     -4.58746302568119      0.79663144658447
  C   3.67072111734192     -3.77310130758154      1.77377461785378
  C   3.85398228611417     -2.29563990837081      1.96641144208180
  O   4.01045957070251     -1.87687503623151      3.08826115676352
  H   5.07770292342456     -0.00779234421863      1.96409911643241
  H   4.29183648657018     -4.60356807230325     -1.39247207260801
  H   3.84053135339069     -5.64180364636174      0.89515391697376
  H   3.19436971305613     -4.22145032059110      2.63835045208800
