20
Coordinates from ORCA-job 15384optt
  Br  1.21648859763711     -0.25946265173557      0.00102301906756
  C   3.04821006661776     -0.04209386084043     -0.27932256739532
  C   3.68037311648142      1.12360051021161     -0.13040377442807
  N   3.06042818304503      2.31623679946618      0.21249661364387
  C   3.58496561909905      3.57420820075582      0.06563737700692
  O   2.96113645888196      4.57482771335144      0.27826301671281
  C   5.06070693308157      3.60202860554586     -0.36124979326399
  O   5.58600665928956      4.63200656108161     -0.65751319582475
  C   5.80438167970837      2.30687952749208     -0.30784345350102
  C   7.14777789116532      2.27389689530295     -0.19185673658060
  C   7.74413523856901      0.99770362062363      0.11932069012050
  N   7.09402008007607     -0.10584110343537      0.19271715370977
  C   5.74944954503101     -0.10787227848542     -0.12141625838951
  N   5.07443544219247      1.14768891268230     -0.27523125870541
  C   5.02148012208785     -1.22259484215626     -0.24387641345262
  Br  5.64284397259876     -2.94027434664147      0.08565870718405
  O   3.70030267217360     -1.17783888972167     -0.66821351406998
  H   2.07305823560184      2.27531050136552      0.43511155600761
  H   7.71508373765226      3.19036265749956     -0.22441819287443
  H   8.80371574900994      0.95422746763763      0.35311702503260
