19
Coordinates from ORCA-job 15382optt
  Br  0.87831412721136      1.04961329852581     -0.01119528249223
  C   2.62876864808207      0.44446223600846      0.03113353072429
  C   3.00573531824331     -0.84314499365083     -0.00231609897626
  N   2.43182836472050     -2.11902072136183     -0.09816245973175
  C   3.41742869986208     -2.97042353477398     -0.13394564233468
  O   3.13425871732744     -4.26886305480348     -0.30260541529780
  C   4.04530987551497     -5.21849326163688      0.09182495074159
  O   5.01569493952561     -4.99953629140294      0.72799982580028
  C   4.76489407661901     -2.33668753532446     -0.05870411416689
  C   4.40846025011679     -1.04918628261764      0.02897813488858
  N   5.47887080890984     -0.29450885263049      0.04019549507172
  N   6.57674453610783     -1.13465325751264     -0.04933889975856
  N   6.14555050820380     -2.34618137768815     -0.10594690208564
  C   5.26872830819556      1.10398614590084      0.06919125770246
  N   6.13572163246486      2.00013406155317      0.06311417188175
  C   3.73388140555973      1.49811951020951      0.10384356858458
  O   3.47346398025856      2.65690815483230      0.18001715036250
  H   3.69772359153829     -6.19063148139329     -0.26761034005335
  H   7.08162221153830      1.61510723776655      0.04052706913940
