25
Coordinates from ORCA-job 15390optt
  Br  1.07737261623274     -0.19261728618925     -0.56434373577442
  C   2.95444448357546     -0.16511059961117     -0.30136246727973
  C   3.65351852135443     -1.35019803466831     -0.03771224793631
  N   2.94004922050083     -2.54089848141620      0.05342748989788
  C   3.23719676220927     -3.89096830498044      0.03348572330437
  O   2.36400917258985     -4.68589825155144      0.26763942056344
  C   4.64615030058648     -4.41827065288882     -0.29667679540861
  O   5.62483827969997     -3.45153639468222     -0.55427191900800
  C   5.79833482717229     -2.52061908661476      0.49507939929210
  C   5.03780302896162     -1.26535394814447      0.19429530537960
  C   5.67850018942268     -0.04672749167355      0.12081769495449
  C   4.97290144544073      1.11967625285314     -0.16068095143307
  C   5.66610532319123      2.42311735992772     -0.24455055930413
  O   6.84410060075139      2.57166166113422     -0.06036393352309
  C   3.60419807615414      1.05364983533257     -0.36737933519374
  C   4.55403120612749     -5.30587606999844     -1.45525659731367
  C   4.48449888651479     -6.03652813290556     -2.39766850826288
  H   1.93965865830502     -2.42419502041336      0.17157342439503
  H   4.92164467967717     -5.02177963763841      0.57960374128733
  H   6.86276684540105     -2.30272843230558      0.57132181852098
  H   5.46911317261119     -2.95398118928514      1.44847076138428
  H   6.74804273441537      0.01911448671101      0.28233231079763
  H   5.01687872293433      3.28352712169027     -0.49531194020436
  H   3.03894780450616      1.95114606077671     -0.58621546963433
  H   4.41989444166424     -6.68560576345848     -3.23825262950079
