16
Coordinates from ORCA-job 153optt
  C   -3.19471682619755     -0.32582203700084     -0.00000067021511
  C   -2.46697861521041      0.82853881616343     -0.00000002056584
  C   -1.05009035699446      0.79360476031637      0.00000025094842
  C   -0.38737399366425     -0.39851969469641     -0.00000018410019
  C   -1.12019729642197     -1.61017830745413     -0.00000051149048
  C   -2.53175944945810     -1.57743589871434     -0.00000011304354
  N   -0.41427808741720     -2.77499603522331     -0.00000128305927
  N   -1.02796097692134     -3.90366862114874     -0.00000046741995
  C   -2.38581016787610     -3.94238406414639      0.00000056638040
  C   -3.17212455257819     -2.82663824699377      0.00000030572705
  H   -2.97325887482922      1.78530203013458      0.00000029955024
  H   -0.49619673544879      1.72329544168141      0.00000130357188
  H   -4.27778604310112     -0.30281628285110     -0.00000122327564
  H   0.69278734793099     -0.46134951565758      0.00000013086511
  H   -2.80436467661116     -4.93969343101568      0.00000106094611
  H   -4.25289069520112     -2.89923891339350      0.00000055518080
