22
Coordinates from ORCA-job 15400optt
  Br  1.16777881788539     -0.11679584552868     -0.83130585745711
  C   3.00003332798916     -0.04766251293907     -0.36716247968062
  C   3.74058871601134     -1.22646484281422     -0.28272393326528
  N   3.15009048691251     -2.47091802599137     -0.50605212815532
  C   3.63837805993478     -3.66772756823689     -0.05325218323457
  O   3.03829148098431     -4.70277290996275     -0.10615002482503
  C   5.05699692479420     -3.58834039158993      0.54843377671540
  O   5.43684116975278     -4.36446542762661      1.35757420653728
  C   5.92872096539725     -2.42380538413645     -0.01233843661135
  C   7.19372984753029     -2.33755860023171      0.70801551663976
  C   8.22398586839369     -2.29179574348829      1.31001331065477
  C   6.17352968175048     -2.75762109297413     -1.43273309519145
  N   6.31724944167523     -3.02338553985326     -2.53733133613981
  C   5.10038187603833     -1.13434906112480      0.02997639032142
  C   5.68160065975567      0.09269510576544      0.29361469413493
  C   4.92478246419289      1.25293268033391      0.22639542031383
  C   3.58536334775177      1.18222029030137     -0.11666454402258
  H   2.20383056289813     -2.49418797308157     -0.86572495044659
  H   9.14187703953328     -2.25750333938390      1.84841009233862
  H   6.73357032676030      0.13271780580247      0.54229165997831
  H   5.37934534703809      2.21223471833832      0.43023427036355
  H   2.98303358702007      2.07755365842216     -0.18352036896815
