22
Coordinates from ORCA-job 15402optt
  Br  1.51609129660827     -0.03861493061858      1.34223008611422
  C   2.05192342967599      1.56275841135693      0.38031032202309
  C   3.46015315994705      1.99858205229534      0.49930989980627
  N   3.30990640444640      3.17390167585271      0.97633514486068
  C   1.84669552197139      2.94028638262472      1.11620796206060
  O   1.09085116904722      3.87899712525675      0.41314891896959
  C   -0.16123475191136      4.20751323368164      0.87413339845395
  O   -0.41800073852445      4.34467287402261      2.02740005176997
  C   -1.14092634323107      4.31357685940455     -0.25785827707232
  C   -1.22350597092803      3.32577715389551     -1.14792423386681
  C   -0.27306357056574      2.21265045070522     -0.93150878375956
  N   0.69000813747259      1.96646604840425     -1.71437467325977
  C   1.81770620488349      1.41044030480911     -1.10288570197697
  N   2.74409734962371      0.97000579051743     -1.86657217828468
  O   3.93396437633339      0.53759759069852     -1.25850811336067
  C   4.49794269885623      1.23782115940814     -0.20454977964158
  N   5.70242436761853      1.14453118499733      0.10888497290121
  H   1.52058409636579      2.85194909476849      2.15214877702598
  H   -1.79028394115885      5.17812425779587     -0.27028290845254
  H   -1.91038000647993      3.34377925009234     -1.98392906317093
  H   -0.33056331199935      1.76789964995930      0.06890776701271
  H   6.20861042194872      0.53428438007181     -0.53462358815245
