23
Coordinates from ORCA-job 15415optt
  Br  1.21103457417548     -0.54894517403891     -1.74477196370500
  C   2.26713030815039      0.33860816271002     -0.47065690662744
  C   3.06529510113292      1.37367529858969     -0.81883571789760
  N   3.06109501292470      1.88039335549545     -2.12993700162105
  C   2.50460515239278      2.98561181577697     -2.30632457157479
  O   1.88570571168958      3.70169209060834     -1.29095968167212
  C   0.73090066188909      3.19807117357292     -0.77062867278392
  O   0.02838402610633      2.43836858212992     -1.36356330072143
  C   0.45266631670478      3.69468341347354      0.62674008688891
  C   0.61732486798961      2.55985648890637      1.63747166333370
  O   2.00585295157769      2.37917389079241      1.90313069482064
  C   2.67026771498922      1.20894670877157      1.81504166337885
  S   1.90687800783035     -0.25219581729009      1.19538020304927
  C   3.95294819973358      1.27217088949030      1.40173494409073
  C   4.03517027480288      2.06093267678687      0.14399524020867
  N   4.72950720071398      3.03381791371312     -0.24752779265631
  H   2.50784098784569      3.49536521198118     -3.26178360135243
  H   1.10302187329269      4.52639461661942      0.88934912876472
  H   -0.58790859090087      4.01998273586630      0.64822311392113
  H   0.16226505222312      1.64301592647980      1.26255312083911
  H   0.14382605437858      2.83557734209534      2.57971716653491
  H   4.51105853579533      0.34472542101770      1.39734524750390
  H   5.32413000456208      3.37007727645170      0.50830693727757
