21
Coordinates from ORCA-job 15418optt
  Br  1.13742927475644     -0.06212982637840      0.06672159867002
  C   2.99471022590294      0.11666997208210      0.03623322810517
  C   3.62101097104182      1.29618198908527     -0.24426892920812
  N   2.88529254333635      2.43188483607823     -0.58626591904390
  C   3.21675359704247      3.55722344779543     -0.13077361673305
  O   4.13699219280994      3.78210355376075      0.84452774558454
  C   5.39895119426435      4.29864442103312      0.44747371294610
  O   6.28317382615453      3.25494749873151      0.16505831411464
  C   5.83981638188957      2.39408800173510     -0.81757555088847
  N   6.07155703514187      2.51101714520717     -2.03742186457627
  C   5.05600377836976      1.21233464816347     -0.29894966772124
  N   5.75869845985000      0.16819969408054     -0.01375682327931
  C   5.13403557634222     -1.00001755326655      0.38389779770165
  O   5.68907132051804     -2.00702198195559      0.72852508939294
  N   3.71991860136299     -0.97196717588413      0.33678622102957
  C   2.54377282735120      4.75486197983142     -0.59882719948822
  N   2.08194290658173      5.73856054930484     -0.96145753061272
  H   5.80649678234018      4.83530337721199      1.29676912631210
  H   5.27007516663165      4.95282967534239     -0.42114349085447
  H   6.64353027210326      3.33428366157615     -2.23311708022402
  H   3.25976706620860     -1.83899791353486      0.58056483877307
