22
Coordinates from ORCA-job 15420optt
  Br  1.33320743687090     -1.62407589617290      0.86239393842510
  C   2.82951308983491     -0.53691733679952      0.58659994798484
  C   2.74536272571468      0.78753882385182      0.34853812359043
  N   1.56168817809423      1.53233708149757      0.30600488900889
  C   1.31118682312435      2.03045571248317     -0.81896798176451
  O   0.50256633230522      3.09800198177883     -0.91999501782385
  C   0.64652922982125      4.03057113878230      0.08620658444186
  O   -0.26950609206076      4.73131047955214      0.36072495245509
  C   2.01716603956198      4.31148766679678      0.71572278756005
  N   3.18490302385855      3.86802725159130      0.61293470898662
  C   4.05082162921054      2.92021024657169      0.09746591643716
  C   5.31041931232096      3.50113756801735     -0.26793375611702
  C   6.35233508545308      3.98497758059365     -0.61634514279169
  C   3.95845979722312      1.54361623803691      0.12947281500650
  C   5.13664187936228      0.70188261505496     -0.02085381590484
  N   5.17322864641036     -0.56353040505724      0.21072034536790
  N   4.04098959944946     -1.16664995314712      0.59240506759870
  H   1.72734585498153      1.71311068130669     -1.77536012722585
  H   1.86955504624295      5.17405760703731      1.36804787499060
  H   7.27458440878358      4.42438215774177     -0.91284691785079
  H   6.07462543241669      1.14476134484645     -0.32624891535420
  H   4.10337652102010     -2.15969258436394      0.74131372297902
