23
Coordinates from ORCA-job 15436optt
  Br  1.12358211543178     -0.40805488745907      2.30009119000280
  C   2.52620595336621      0.07511825417003      1.18225637274969
  C   3.14850918695536      1.27721769037168      1.25782546539855
  N   2.86808782074083      2.22560495835691      2.23501210431320
  C   2.30559691655092      3.32748731297171      2.02133077529903
  O   1.63153744519929      3.79251957623666      0.94158187733006
  C   0.89848552837619      2.93925836081706      0.11381280789969
  O   1.73965735110361      2.40886717387423     -0.90225394444864
  C   1.49084750893492      1.13285055279439     -1.25372056180418
  O   0.44442518641253      0.58523229234707     -1.07635328948064
  C   2.73140004562091      0.45885516141804     -1.80920729604721
  C   3.51536244660801     -0.20028897501396     -0.70596052349322
  O   2.76691986045522     -0.91407356404727      0.20712964014331
  C   4.69885222186860      0.28119578384750     -0.25959207750643
  Br  5.69887660249548     -0.77306954782748      0.97175303602913
  C   4.31032032686219      1.62566935072905      0.32850305588401
  N   4.73710695307457      2.79627578233317      0.20672951676615
  H   2.32226716540671      4.08995338140714      2.79340507125081
  H   0.45759655424317      2.11726832260596      0.67992283411640
  H   0.13140359237528      3.55588271559071     -0.34642277068426
  H   2.41299467344939     -0.31372664553977     -2.51200139885488
  H   3.37653502246638      1.17083681708434     -2.32086331779123
  H   5.50542952200241      2.84012013293189     -0.46097856707214
