28
Coordinates from ORCA-job 15435optt
  Br  2.10564169680763     -5.72045533701664      0.82308376652019
  C   3.36383651059794     -5.23609778791598     -0.50042339339284
  C   3.99232773647686     -6.21572240473362     -1.21883681751517
  N   4.87178661385796     -5.81405162373207     -2.18146730299554
  C   5.63956818837987     -4.65094840084922     -2.11096798099937
  O   6.56412350712086     -4.47591152673099     -2.87795483403304
  C   5.29066210461277     -3.84623215842360     -0.94959828441002
  O   6.30213358170247     -3.13729341872885     -0.36691981632618
  C   7.31826436878604     -4.04762704071863      0.08539662715427
  O   6.94603985035670     -4.90904761239120      1.11882977483899
  C   6.18249011992172     -6.11291097250368      0.97802458555554
  C   6.54466804529715     -7.05698936847454     -0.17905142601359
  C   5.43327789848024     -8.07331227642628     -0.61502156558695
  N   4.05695880766666     -7.56277776023552     -0.91743771692021
  C   5.94858094173194     -8.81082522739088     -1.77575898823229
  C   6.39767223875715     -9.36502152036555     -2.73697993960440
  C   4.10279325099744     -4.03023972104490     -0.32398694223245
  H   5.24841949078680     -6.52541582613712     -2.79980119354087
  H   8.08259412688958     -3.40223035642555      0.50693174149752
  H   7.70659423263298     -4.58772669167938     -0.77956863894862
  H   5.12516977131188     -5.86827270197839      0.95889437831927
  H   6.36136361719368     -6.63092783604429      1.92070402480514
  H   7.39703685671866     -7.67598465770571      0.10674183793875
  H   6.87686635770895     -6.50494986315394     -1.05421992570855
  H   5.28899715998233     -8.78640504393285      0.19895743113483
  H   3.38580992454298     -7.82482934285661     -0.20961182494631
  H   6.79074694967308     -9.86674878105420     -3.58938938027441
  H   3.85657605100757     -3.39804474134969      0.52043180391629
