22
Coordinates from ORCA-job 15438optt
  Br  1.02145662395621     -0.48361037064136     -0.38740020865550
  C   2.86544442499659     -0.28261904843011     -0.07434624742731
  C   3.66313370560415     -1.37595715907094      0.04174522440643
  N   3.21112443079984     -2.66625468471915     -0.06011755341299
  C   4.02898210892307     -3.73480992562002      0.07124574687454
  O   3.31370720101019     -4.88599112643547     -0.06880586046715
  C   3.86467783983873     -6.11324945460554     -0.00741206299620
  O   5.01053022945975     -6.37095850051297      0.18017034738605
  C   2.80744531614101     -7.20301275576945     -0.21562281020298
  O   1.66027814373739     -6.96745781715499     -0.42167564393278
  C   5.36014246080320     -3.56281395835064      0.30924120259461
  N   5.86335346254758     -2.30280329916091      0.40995543813758
  C   5.09558471919514     -1.26203199652654      0.28869640124329
  C   5.64753033466885      0.06686245871535      0.39774868202706
  C   4.86235633396816      1.14574318300958      0.28204174053814
  C   3.40346502771615      1.06591498735054      0.03946376650876
  O   2.72534920887257      2.07152192381655     -0.05237625830752
  H   2.22401534340764     -2.82171717096828     -0.23878146964882
  H   3.23579501419994     -8.21587657183093     -0.15195354933763
  H   6.03755058128551     -4.38894854020868      0.42066238212704
  H   6.71220756962779      0.13618334726244      0.57815334626878
  H   5.25586991924052      2.15088647985156      0.36336738627659
