21
Coordinates from ORCA-job 15449optt
  Br  1.16935360278731      0.15467020034067      0.02815326658862
  C   3.04064916265716      0.13598972850973      0.01408305101210
  C   3.75083423995928      1.28798600449069      0.00922201359869
  N   3.10461070116231      2.50472449867108      0.01028577961350
  C   3.78398740877299      3.55955996034404      0.00466729562640
  O   5.13629964620237      3.62470971383848     -0.00163318860974
  C   5.88543387009660      2.48318751511819     -0.00195175753115
  O   7.06993980114349      2.59599687617473     -0.00599638486199
  N   5.18373875020769      1.28154644345026      0.00232309154750
  C   5.94809947536289      0.04615197587895      0.00124865850909
  N   7.20133846608057     -0.10768517909765     -0.00158113648480
  C   5.09578730680734     -1.12335289540806      0.00318893327320
  C   3.76052059579962     -1.09842596697241      0.00919486294551
  C   3.28182595599437     -2.51731547221798      0.00786889204281
  O   2.17576133664765     -2.94885979000029      0.01045390504386
  O   4.38873704293864     -3.30456419060274      0.00200982689584
  C   5.58268045503865     -2.52903668146554     -0.00072989052451
  H   3.33756041523553      4.54546535168020      0.00412761839311
  H   7.72413495111695      0.76046912221190     -0.00300744253653
  H   6.17152122532341     -2.76277170003910     -0.88891334848990
  H   6.17718559066515     -2.76544551490512      0.88298595394839
