19
Coordinates from ORCA-job 15442optt
  Br  1.32430430458276     -0.79487406366612      2.73924608313303
  C   2.73000629159829     -0.44892997294611      1.55092392325734
  C   2.91981912432101      0.77028081424540      1.01004402665914
  N   2.00565871224001      1.83164483613449      1.24781017846522
  C   1.49615399209889      2.33984676546814      0.01964075593038
  O   0.76475072100708      1.72524423984178     -0.68810822143759
  C   2.23164718269524      3.62325388432269     -0.41341570364111
  O   1.75241828337996      4.55723572004670     -0.96232964597145
  C   3.73018388384540      3.47759900549242     -0.01139800607568
  O   4.30556158203010      4.39305529347467      0.50674306407142
  N   4.31587190480137      2.26586201235372     -0.32563336810461
  C   4.01912522619181      1.08274180805308      0.07612421439820
  C   4.82227973915414     -0.01486857587466     -0.43401079092456
  C   4.75100477427825     -1.27527126106557      0.02195793477002
  S   3.67510168427232     -1.85804719222850      1.25676750406297
  C   5.60625892285317     -2.29704065414807     -0.50507297201808
  N   6.28063553763454     -3.12973827803537     -0.91259960243123
  H   2.40560310436777      2.55712410261362      1.83834532124524
  H   5.54061502864784      0.23188151591768     -1.20503469538865
