21
Coordinates from ORCA-job 15448optt
  Br  0.96577385094490     -0.27736466433187     -0.03928892023798
  C   2.83032476164924     -0.06505466705127     -0.05060549291226
  C   3.62508533372499     -1.13019855468804     -0.05583425085949
  N   3.30254475452360     -2.47039315322668     -0.05513888293086
  C   4.41553222885941     -3.28868252737287     -0.06054948883283
  O   4.44028994008454     -4.48224670852370     -0.06099026495356
  C   5.60553762132719     -2.31906410374583     -0.06559595559951
  O   6.77495868371677     -2.57271775604472     -0.07075656802189
  N   5.02829713429764     -1.06448357109251     -0.06259862291103
  C   5.71915511414184      0.13808004512931     -0.06418254730752
  C   5.11849925815952      1.32939798336327     -0.06067186319233
  S   3.37109630991656      1.60626252932123     -0.05343198562688
  C   5.92339105239980      2.54349484339099     -0.06308446138303
  N   7.20854011095117      2.65580305271445     -0.06642341214013
  C   7.43547918567130      4.01823864814809     -0.06829471970940
  C   6.25041423849044      4.66271758310838     -0.06584056866547
  O   5.26984943854831      3.72138223858908     -0.06234890505115
  H   2.35371733961510     -2.81197363636655     -0.05132060681099
  H   6.79741694648231      0.04640786044490     -0.06861396769881
  H   8.42899998755478      4.43100348878825     -0.07125131684402
  H   5.94109670894055      5.69139106944610     -0.06617719831085
