21
Coordinates from ORCA-job 15443optt
  Br  0.86233915882262     -0.15163054562493      0.62375695836285
  C   2.70912693437819     -0.02802549639574      0.35718993729778
  C   3.34596685470378      1.19037008401649      0.32599513206737
  N   2.92887596757791      2.46929781693024      0.46089975551239
  C   4.06061766322016      3.13528935120362      0.31748364578743
  O   4.10881878005268      4.48460276536633      0.45016082869957
  C   3.36076469988079      5.24556868827556     -0.37318245638520
  O   2.80398907415177      4.88384516613633     -1.35935411228445
  C   3.32499401635132      6.70383754785681      0.08926112471689
  O   3.86841128122132      7.09290670205137      1.07353976024199
  N   5.21756836723473      2.47144784095965      0.10501361311649
  C   4.77938029285099      1.22587730726812      0.10830633189838
  N   5.46823087574907      0.09112604663484     -0.05792551169817
  C   4.83568704521390     -1.10586550732794     -0.02286057009153
  C   5.69269278367088     -2.28943915525067     -0.22320891120781
  O   6.87554873148910     -2.19262954684578     -0.41460959512676
  C   3.48056914060898     -1.19001940010619      0.18239696911668
  H   2.73570915093625      7.34399148505196     -0.58750213643701
  H   6.47284788174929      0.09543722168020     -0.21744260565404
  H   5.17683678832132     -3.26195798989302     -0.18480788106045
  H   3.01402451181487     -2.16503038198729      0.20788972312759
