18
Coordinates from ORCA-job 15458optt
  Br  1.47381042802370     -1.21085511465406     -0.94165671525547
  C   2.95724881384510     -0.32494453969085     -0.24083519544711
  C   3.07597910128537      1.02698395645394     -0.23100802380852
  N   2.10836663787645      1.87787390937248     -0.78225903735041
  C   1.60822729373773      3.01592534936476     -0.18957595096066
  O   0.64566471266400      3.60602646355853     -0.58044277649325
  C   2.44011290941587      3.47491511804574      1.02123997512251
  O   1.98638091179431      3.57624485153585      2.11558675826444
  N   3.75964827915252      3.82855854578640      0.68606078529525
  C   4.60684057547946      2.96546964663395      0.32969925298910
  C   5.94308176348350      3.38370740507364     -0.04077049636133
  N   6.98847463903858      3.70567649891304     -0.37833858791667
  C   4.34160917327623      1.48667703106797      0.27806975129552
  N   5.28788074632490      0.73170589105888      0.71226444991730
  C   5.12483097993148     -0.63644478660017      0.74225586251934
  O   5.88126056335814     -1.43716434263450      1.16198950495461
  O   3.90325896902794     -1.12632948379102      0.19456527038842
  H   1.54632350228469      1.51697360050539     -1.54384482715307
