20
Coordinates from ORCA-job 15468optt
  Br  4.20822836614680     -0.15796530549190      3.05052658895636
  C   4.72767725207405     -0.39121989521523      1.25973196100434
  C   5.95521931110627     -0.12456801384249      0.81339872885633
  N   6.33073589906285     -0.36206950178333     -0.54098814446847
  C   5.94985112472938     -1.40652583621894     -1.10553118627692
  O   6.72674701761250     -2.00015285005975     -2.05062552954595
  C   8.07747887524575     -2.00413730437776     -1.73176221634653
  O   8.93023212822530     -1.87396011279929     -2.52939715198506
  O   8.21873974185288     -2.26240022784036     -0.41305831739536
  C   9.30538156249897     -1.82591006105129      0.34924211991035
  N   9.09407214267958     -1.27723540098052      1.45737934776405
  C   7.71790708236193     -1.06369092649316      1.65851095318618
  N   7.19970548653278      0.07686903421559      1.45059737567978
  S   4.49808750403119     -2.29310443919817     -0.49322753237334
  O   5.02552090722246     -3.28431396286027      0.38282407685403
  O   3.58265310105055     -2.59306729278769     -1.53740871615354
  N   3.85527211694549     -1.06042214939473      0.38537352014161
  H   10.28385392027689     -2.03253066133592     -0.06694053781102
  H   7.12380274597173     -1.97363386694477      1.80086625065943
  H   3.04683371437257     -0.60696122554001     -0.02351159065626
