21
Coordinates from ORCA-job 15460optt
  Br  1.67270333130634     -0.67823962313837      2.14482406649141
  C   2.88043175467342     -0.13908358278648      0.83308806319233
  C   2.92484751244384      1.11909925357775      0.35962308663337
  N   2.23092404070383      2.18996508488738      0.97007372898306
  C   2.49926350411585      2.48191364991248      2.33521083650698
  O   3.30469090313900      1.88688474141316      2.98003938798916
  C   1.44427646228909      3.12248821529142      0.27053117720834
  O   0.89189525364752      4.02999379177929      0.81621351914375
  N   1.31827337440186      2.94644606688883     -1.12595658397129
  C   2.34278325139281      2.82104638417584     -1.83041394208949
  O   3.63039746250417      2.67138127558278     -1.35349793723089
  C   3.81673500725321      1.43950817016431     -0.76800137495870
  C   4.74275188473588      0.61543017042530     -1.26483653516723
  C   4.85680907022614     -0.73388696026409     -0.72668067148280
  O   5.66805006376885     -1.53843446546414     -1.11260487884787
  C   3.82135889254573     -1.15802038446091      0.32141913250700
  N   3.78769372707470     -2.34727959790899      0.73960857115500
  H   1.89027404080985      3.31662002170876      2.68999817227410
  H   2.29306566193307      2.81481979658769     -2.91550225458205
  H   5.36354697512948      0.90361357501251     -2.10110150377657
  H   4.52922782590533     -2.88226558338456      0.27396594002239
