21
Coordinates from ORCA-job 15467optt
  Br  3.35335158156480     -1.58124355645311      1.97872134551664
  C   4.76269123314291     -0.93703464874518      0.92626912303616
  C   5.98842308914240     -1.67314798165891      0.92929250646137
  N   6.97968685391056     -1.15288220957155      0.12141113094591
  C   6.85494664902062      0.00029373928366     -0.57931164362602
  O   7.93872809073109      0.40054387532082     -1.28582545782081
  C   9.21307911302533      0.10520684006712     -0.85098244700599
  O   10.12817015495336      0.76695390489612     -1.18228507987218
  O   9.29546694348967     -0.96290794685075     -0.04989063594003
  C   8.21168969335147     -1.90838552305624     -0.08097573437467
  C   8.20944201928995     -2.58018452306261     -1.47126604953354
  O   7.28447809486988     -2.49735348855910     -2.21955668362713
  N   8.44823779149671     -2.89537382080396      0.88213455816311
  C   7.45259984280648     -3.24425163140479      1.62705002291420
  N   6.19129013307274     -2.74579726895433      1.65099511510917
  C   5.70436384409861      0.71360036920797     -0.57392281708026
  C   4.63470829881690      0.20324574975629      0.19098233068446
  H   9.11879585169410     -3.16947583472682     -1.67348277596898
  H   7.64220177838687     -4.03815757790679      2.34250964444416
  H   5.63736355635898      1.63159907829098     -1.13534885323137
  H   3.69728538677652      0.74275245493118      0.21248240080580
