22
Coordinates from ORCA-job 15466optt
  Br  1.86425094350691      1.16702456163942     -1.72203346880265
  C   2.61647073457334      0.20891838055622     -0.29421029675607
  C   2.82387129449509     -1.13387280131470     -0.38233072677141
  N   2.53067359195585     -1.86415515246513     -1.54551381509776
  C   1.98983370422054     -3.11850395546110     -1.64401316105298
  O   1.92119608855444     -3.72595761377195     -2.67734356875933
  C   1.44513264263214     -3.74137281264998     -0.34650060167495
  O   1.47741113029972     -4.89439670164364     -0.08379728309695
  O   0.92402144910474     -2.77069719752665      0.44463265954707
  C   0.77222221488587     -3.03198275368496      1.78547058698738
  C   1.20620455265309     -2.13706029419630      2.65483330387430
  O   1.79763914329076     -0.94457508543669      2.28028492169074
  C   3.11427336191492     -0.97866192885308      1.95775958131851
  C   3.74667970515547      0.17707332844195      1.64506623866130
  N   2.94636878936322      1.00148586880827      0.81635033685222
  C   3.47245841856925     -1.88697281762955      0.77584118604426
  O   4.08492567568726     -2.90347497439269      0.66872849450842
  H   2.85512507839303     -1.50516330035627     -2.43449613558070
  H   0.30458122918898     -3.96356034130512      2.06768948845612
  H   1.07759312764336     -2.26418345642457      3.72049224647833
  H   4.80356193132849      0.11677563922258      1.39742818032729
  H   3.23150519258350      1.94731340844396      0.60166183284685
