20
Coordinates from ORCA-job 15461optt
  Br  0.93407358799040      0.04327598411406     -0.02303942290640
  C   2.81050477211491      0.03866223616143      0.02686899784053
  C   3.51907013264544      1.18409308135488     -0.32894167568001
  N   2.85251537481028      2.33429203302158     -0.77056129198504
  C   3.11912414957822      3.41650765401990     -0.19904465796159
  O   3.89365542754935      3.53728887393645      0.92527445327637
  C   5.18334266267864      4.00947491708273      0.78661487434932
  O   5.62644474990592      4.81284177436865      1.53307310490207
  N   5.85292259328351      3.47316074154821     -0.29606706711871
  C   5.80568084628246      2.19659675428057     -0.87733379200663
  O   6.54032338229374      1.95127057607790     -1.78804786420612
  C   4.91288664633786      1.11269563825434     -0.30315218683894
  N   5.58267633434359      0.03592883988509      0.07924158993880
  C   4.89089535161027     -1.02689609151114      0.46561741754835
  C   3.50343034950842     -1.08181634428880      0.44208387608068
  C   2.55277263338861      4.66561403159141     -0.66494872775911
  N   2.14724035602832      5.67177768796189     -1.03104716229180
  H   6.68631327666501      3.98636600211504     -0.55887551632760
  H   5.46653282384289     -1.88279640844688      0.79696501369547
  H   2.97559454914208     -1.97633798152734      0.74032003745034
