22
Coordinates from ORCA-job 15476optt
  Br  1.08285647585903     -0.02762360019556      0.05720168717869
  C   2.95684681261326     -0.01372158098274      0.05836180415272
  C   3.68236169941212      1.11942420405272      0.05866743699708
  N   5.07533168885575      1.06448365102416      0.05921116472997
  C   5.63192835506158      2.35120234668086      0.05926101812900
  O   6.78778249033303      2.62961164880447      0.05969032050377
  N   4.52295743324666      3.22936692611193      0.05881867484957
  C   3.33415106048285      2.53485711800757      0.05856224593474
  C   2.16430409990775      3.21046434193237      0.05842889183929
  C   2.27859888526958      4.63684402315551      0.05862731452792
  N   3.37826308927331      5.31132447864968      0.05875603074078
  C   4.60714033993257      4.66093427437658      0.05868886489913
  O   5.66570629437091      5.21063452493542      0.05857840139002
  C   5.83263715640463     -0.14045205173344      0.05953388145270
  N   7.09305211276310     -0.23268861533211      0.05986546795811
  C   4.98581157521089     -1.33189354040337      0.05943328209115
  C   3.64592639039588     -1.27991451123017      0.05884218694693
  H   1.20676284112781      2.72159296867694      0.05829462388708
  H   1.36137554819589      5.22121083338615      0.05871977272102
  H   7.55718384237562      0.67177957901802      0.05988343123149
  H   5.52213564882989     -2.27028889078818      0.05981663600690
  H   3.05388616007784     -2.18514812814681      0.05875686183193
