19
Coordinates from ORCA-job 15470optt
  Br  1.53397804749468     -0.65539703982088     -1.75969758304966
  C   2.40851641853572      0.48085226206476     -0.53439856434687
  C   3.05184411437662      1.60209862235301     -0.96178914826088
  N   2.73199577870982      2.24375638172660     -2.16502745569777
  C   1.57397691383690      2.72056680792331     -2.24082197762703
  O   0.56877107374291      2.60772854339741     -1.28422353828140
  C   0.82160612503762      2.90397259826229      0.01170094969120
  O   1.58844648510070      3.72479438720275      0.39722593167309
  O   0.04170620624026      2.12994614401193      0.78374272660039
  C   0.15563286737589      2.27482485434680      2.17435370274301
  N   -0.62720888478031      2.96250874086345      2.85216399372015
  S   1.34718481449068      1.27050942814184      3.05454718491243
  C   2.49486316029245      1.00238125115245      1.71652996566153
  S   3.90908292046662      1.99534486603753      1.67100332621214
  C   4.02573379547900      2.30474589175150     -0.11256517371506
  O   4.84374192298086      3.08371997864785     -0.49838817785748
  N   2.08484499538777      0.26573348490425      0.75989792272627
  H   1.20746557776472      3.21069127992222     -3.13335239089193
  H   -1.33218233253296      3.42622151711085      2.28009830578787
