24
Coordinates from ORCA-job 15486optt
  Br  -2.42024243537974      2.64072959286908     -0.06911586651948
  C   -1.36522811660140      4.05773266842288      0.58359623449116
  C   0.00037762959588      3.99833579617513      0.52225896973865
  N   0.72126528139190      4.94655646374683      1.14157671489187
  C   0.13414813635607      6.03393998564968      1.83388105581885
  O   0.80174789803205      6.70418669682298      2.57386879111118
  N   -1.17228291479980      6.27578515677230      1.46733953561545
  C   -1.85890913767647      5.35978953009853      0.86290616736337
  C   -3.09929954971403      5.85797050767811      0.13834397641676
  C   -2.92042399271589      5.66343776050142     -1.39888142630462
  O   -1.56414399924606      5.83422529227926     -1.76605310722963
  C   -0.94895414899913      4.84171373883195     -2.52394838668952
  O   0.35751474887412      4.58360352546077     -1.99893254898697
  C   0.73815793658254      3.38821518661552     -1.48770770439697
  N   0.67611191871912      3.07065772425563     -0.26635361349445
  C   -4.36058436424908      5.25627921991001      0.56780616862599
  N   -5.37261171205359      4.81449188286412      0.87271514798763
  H   1.73129433102307      4.91085802650652      1.11493439215015
  H   -3.14725578070250      6.92288727405253      0.36636381417088
  H   -3.52389825705227      6.41675317579589     -1.90636807544072
  H   -3.28214414589970      4.67942243845227     -1.69395471952814
  H   -0.78315568581217      5.21346663752160     -3.53455487964882
  H   -1.53719610966848      3.92070284742642     -2.53395220595427
  H   1.20971246999557      2.71025887129047     -2.19476843418833
