22
Coordinates from ORCA-job 15490optt
  Br  3.45001922617682      1.75379992670054     -2.39138475931503
  C   4.27647689247674      1.24617826239402     -0.78911569769909
  C   3.73123726962950      1.48456698790220      0.41182460112312
  N   4.31625431888395      0.90535000767701      1.52951119524742
  C   5.24125827426592     -0.13905347789867      1.45579834859520
  O   5.51130329183047     -0.83292472879045      2.40136578569146
  N   5.81859716185898     -0.27630464083695      0.20592668255075
  C   5.66762729583925      0.78236962886469     -0.71390963430751
  C   6.67166480728333      1.52384363957350     -1.19133494652230
  O   6.32022525774393      2.68055911596308     -1.87722586537095
  C   6.92883801523893      3.85390505011297     -1.53774400462529
  O   8.08852014881509      4.06446152223052     -1.63188531188194
  S   5.73291277693305      5.10058413364144     -0.98108115080234
  C   4.70925912253999      3.97186786445045     -0.12607531984817
  C   3.39757979741484      3.94594677844756      0.11374433202901
  C   2.81780072959813      2.68150643016173      0.67526063981783
  O   1.79455421414925      2.61514253031108      1.29764402162475
  H   3.85655359213934      1.00059875173182      2.42415735591597
  H   6.62956503401050     -0.87642979225830      0.18307152276915
  H   7.72742350464211      1.31819300772060     -1.07309810160826
  H   5.29617729034585      3.13740804798084      0.22454203336432
  H   2.70915197818398      4.75043095392028     -0.11099172674807
