24
Coordinates from ORCA-job 15507optt
  Br  1.25941149978918     -0.61798789684709      0.00207223481153
  C   3.09339220609605     -0.33176309230909      0.16084238497438
  C   3.67779411919601      0.87935956393163      0.15852952625537
  N   5.08802328593746      0.91049546904490      0.29268274601886
  C   5.50584136361085      2.24576836583081      0.22112556934211
  O   6.65011443173759      2.62371787360061      0.26180320116816
  N   4.34711718676716      3.03244573507926      0.10269547274307
  C   3.30831059031344      2.25661513288686      0.06076246229274
  C   1.91760605781460      2.81072444032738     -0.05258721178789
  C   1.17404952868524      2.66858566215083      1.19790292786976
  C   0.58107358506215      2.55065329178524      2.23040913745041
  C   5.80816198112644     -0.26297744625126      0.14862128802084
  C   7.28221153314298     -0.16026676813825     -0.05190269829650
  C   7.59788532683852      0.54642095747262     -1.35764161127994
  O   6.81023256792677      0.64041049312842     -2.25427109862811
  N   5.24707910996464     -1.40931496318821      0.14141494918453
  N   3.86708386160052     -1.43807502721874      0.29951723300361
  H   1.37825236253227      2.30660858831191     -0.85782554760077
  H   2.01124103680563      3.86534282961556     -0.31172244964616
  H   0.05494027075709      2.45458867572687      3.14997217624043
  H   7.69648106424465     -1.16938754411671     -0.09432004625135
  H   7.75271635507119      0.38567497400866      0.76560620116070
  H   8.62083898256117      0.94887624169092     -1.44387577937249
  H   3.46614169241833     -2.34751555652316      0.14118893232670
