21
Coordinates from ORCA-job 15502optt
  Br  1.36838861159324     -0.65685487479067     -0.06925479728881
  C   3.19769900175758     -0.29047974336412     -0.06739439744712
  C   3.70241580742853      0.96905546083767     -0.06977916108366
  N   3.09489855719372      2.18590216313408     -0.07371179490057
  C   4.07368322451029      3.20837819500813     -0.07559246242928
  O   3.81922327633646      4.37926285324473     -0.07959757719433
  N   5.34264352487686      2.59676529458424     -0.07203748502025
  C   5.14367282738241      1.31708442770003     -0.06881129317630
  C   6.02850762789474      0.19908306216617     -0.06460343283833
  C   5.40844297895775     -0.99288535519254     -0.06243345905796
  N   4.11308066742767     -1.33109254957786     -0.06336293310223
  C   4.08203533397233     -2.78523027159131     -0.06025182982535
  O   3.10362555716938     -3.45348319147628     -0.06011363464195
  C   5.54247087466701     -3.22263364273431     -0.05741088857807
  C   6.31360009067687     -2.12954960380818     -0.05873207770172
  C   7.64674246064275     -1.50560850538445     -0.05864247457914
  C   7.47850835263370     -0.16046625179836     -0.06200348479802
  H   2.10564552058031      2.36910875251137     -0.07594123438832
  H   5.78660367933152     -4.27321091505431     -0.05500582810719
  H   8.58923135139676     -2.02740795636127     -0.05639926853095
  H   8.27688067357007      0.56626265194725     -0.06292048531045
