21
Coordinates from ORCA-job 15516optt
  Br  1.10717826695239      0.16270492387031     -0.17497861001106
  C   2.97859509934148      0.03345469081511     -0.10091797349221
  C   3.58840224501625     -1.16761065947844     -0.05420300684585
  N   2.92626611074283     -2.38703657235824     -0.04547337132321
  C   3.65252896858988     -3.41829684852614     -0.00724994539576
  O   5.00739061122346     -3.46550083050959      0.02430760461840
  N   5.72143291776773     -2.29767408557755      0.02484375775771
  C   5.04669823482955     -1.21097132132017     -0.01016044247277
  C   5.86190041139229      0.05304710050394     -0.00822244647182
  O   7.06970504620077      0.06527441120111      0.02619799569542
  C   5.07379766931970      1.29795789884126     -0.05196885405626
  N   5.87747564159741      2.42864262990512     -0.03953461022560
  C   5.46554059238203      3.72775773554984     -0.09768226988774
  O   4.32140654347202      4.09297488748121     -0.17130544321050
  C   6.64208773855341      4.71540255800030     -0.05652985370042
  O   6.46867784908311      5.89078318148635     -0.10098474231615
  C   3.72120067537021      1.27240099078671     -0.09753039887680
  H   3.24480474618837     -4.42187002152252      0.00638324117559
  H   6.86797809593140      2.21652929452983      0.00804749870259
  H   7.65397287198756      4.27034783366212      0.02054245944894
  H   3.16895966405809      2.19968220265942     -0.12858058911249
