20
Coordinates from ORCA-job 15513optt
  Br  1.06574407809973     -0.01793210165176      0.04942857800641
  C   2.91921759473999     -0.17547286133716      0.03550226605161
  C   3.57576442229422     -1.33636953062198      0.06028779350429
  N   3.16014670855480     -2.65079838050394      0.09928697178337
  C   4.24891367517148     -3.50979376929631      0.11207276257105
  O   4.24213724826064     -4.70531726669904      0.13983288252938
  N   5.36972461054979     -2.67179646448312      0.08494898168893
  C   5.02150311846097     -1.35740802841648      0.04925707758957
  C   5.70517561335321     -0.17980639419759      0.01186760492138
  N   7.08596391202007      0.06604491440402     -0.00388032373833
  C   8.09661607077609     -0.82220224848357     -0.00457155798010
  O   8.01002730061789     -2.02945338212982      0.01060607280956
  C   9.42097074067451     -0.16920330797547     -0.02694409571137
  N   10.45676418839211      0.31742341064944     -0.04373082316329
  C   4.95480604157553      1.06723051514813     -0.01487515834780
  O   5.46935126387440      2.15328002946092     -0.04755497572894
  O   3.58450983510731      0.99183899146528     -0.00045140115648
  H   2.20894624073358     -2.97777674946424      0.11068996462192
  H   6.32838867995467     -2.99749495120909      0.07845908998144
  H   7.30232865678895      1.05900757534181     -0.02523171023259
