26
Coordinates from ORCA-job 15520optt
  Br  6.59367662957781     -2.38935966179319      0.94540587415416
  C   5.32183156152529     -1.12682367545377      0.44644011433782
  C   4.08580185001049     -1.37950432594316      0.01826884887749
  N   3.31376558567025     -2.46927505312105     -0.21413015341852
  C   2.04994226014754     -2.02992782114132     -0.68734227427185
  O   1.15950578983670     -2.76669643436473     -0.98926948464305
  N   2.06208748967969     -0.61565279381543     -0.73011664871279
  C   3.22893783699417     -0.24922389299406     -0.32846666869312
  N   3.70424790816686      1.03024619599215     -0.21193307317764
  C   4.90841504232871      1.17182746850499      0.19725640836555
  C   5.59175257934669      2.49567805141583      0.32179232743091
  C   4.67685748611907      3.69454104000756      0.12518023528672
  C   3.70824934037730      3.88333308683182      1.29016862074967
  N   2.95725318757473      5.11878219449963      1.17725606152554
  C   3.53492112030946      6.31260343175758      1.43660526267586
  O   4.68420762821213      6.44826261488249      1.79239982285561
  O   5.74337085053460      0.16203385411274      0.54030831301114
  H   3.55737932125244     -3.43818087664043     -0.09653666059755
  H   6.39617218276818      2.49984230583492     -0.41919426772893
  H   6.08580140903420      2.53122579202491      1.29655756581689
  H   4.11600136863791      3.58680516633427     -0.80412554201582
  H   5.29481767402663      4.58956625563072      0.05167684697927
  H   4.27151587255062      3.92035246780268      2.22554758448216
  H   3.00164035845909      3.05687216880048      1.34235281236469
  H   2.00694702867810      5.10090477369954      0.84909753676940
  H   2.84990063818128      7.16376766713479      1.29780053757636
