22
Coordinates from ORCA-job 15523optt
  Br  1.16598631846168      0.13674898388905      0.10284726053098
  C   3.04487467767403      0.01527383230944      0.09065829726221
  C   3.66388557312329     -1.18513584404884      0.08746489022340
  N   3.31986615152824     -2.49962283138028      0.08897161574621
  C   4.50392343319667     -3.28577236922160      0.08407053133953
  O   4.51020177759082     -4.48344369876883      0.08372729047245
  N   5.60872108218004     -2.41229192209416      0.07982352555246
  C   5.10557370232283     -1.22204403873647      0.08153785803390
  N   5.75810791460763     -0.02898201869499      0.07885691544444
  C   5.03046399288001      1.11906561545902      0.08003559653498
  N   3.74070113133791      1.18227181651021      0.08583491874931
  N   5.74672161923013      2.31117678240780      0.07351130374150
  C   5.15615099695689      3.58411189209895      0.06675134440430
  C   6.15250623100471      4.45808871616407      0.05802495947073
  O   7.36569017264429      3.79674128720236      0.05929698306415
  C   7.12554898348617      2.46250746714900      0.06876861103415
  N   7.97781491237600      1.52974888720902      0.07267749709067
  H   2.39229578241573     -2.88861847170691      0.09240683444808
  H   6.78341171806142      0.04440758005297      0.07569245829525
  H   4.08875422066502      3.70059440562089      0.06858984517098
  H   6.18458498250220      5.53115234559491      0.05052046838127
  H   8.93021462575423      1.87502158298439      0.06793099500905
