25
Coordinates from ORCA-job 15526optt
  Br  1.25898292253753      0.01130874139851      0.45806088421668
  C   3.13024540561467     -0.09291188095811      0.28646822147785
  C   3.73380574994786     -1.24933555972943     -0.05050068439990
  N   3.38036161482363     -2.53037381007534     -0.34845288253624
  C   4.55139211362237     -3.27926243767871     -0.62708631112844
  O   4.55345753119002     -4.43851667864488     -0.92471224793208
  N   5.66511110538691     -2.42115520498846     -0.48961150629974
  C   5.17182931222074     -1.27539668157380     -0.16150628074742
  N   5.82757752756226     -0.10982191155496      0.08749699993294
  C   5.11775035589921      1.00983590123107      0.41838822070559
  O   5.90188166599730      2.06199880914738      0.61774439210515
  C   5.26645850679695      3.30546158768122      0.94394693143729
  C   4.85173485397835      3.33636860639687      2.40876847936913
  N   4.28644028492146      4.62703225500814      2.74202239033575
  C   5.07474627349217      5.71335208066811      2.92123378717628
  O   6.27763054840642      5.69981633081000      2.80370678231171
  N   3.83631110271188      1.05020591776245      0.52345263868316
  H   2.45207072683349     -2.91549623611739     -0.38361533269347
  H   6.83584661384042     -0.06232773817944      0.02077081555056
  H   4.40586535748507      3.45350178652716      0.29255353327271
  H   6.02103821572281      4.06525520658373      0.75763612381428
  H   5.72951866505582      3.16258203322422      3.03247050681476
  H   4.10949638887734      2.56646019355740      2.60704963737806
  H   3.29091825628301      4.72680016775479      2.84191752643383
  H   4.50852890079226      6.61861852174945      3.18979737472157
