27
Coordinates from ORCA-job 15529optt
  Br  1.06036909599950      0.16947313395131     -1.23728395054059
  C   2.84339054120148      0.07587190352364     -0.64671348036540
  C   3.48785766700789     -1.10609127579410     -0.59968812088170
  N   3.20587830782616     -2.38895589081882     -0.87727911525224
  C   4.37064140058403     -3.19569531417135     -0.59569164537285
  O   4.38202094379467     -4.38097635329986     -0.76057638561895
  N   5.37736458353540     -2.35756926186191     -0.13579860940198
  C   4.86749749570802     -1.15569543734189     -0.13993220346914
  N   5.42489729847187     -0.00187660500625      0.20558526913208
  N   4.81912070226725      1.20965734239094      0.15984780609865
  C   3.57343366759759      1.25578579821604     -0.23215199698127
  N   2.94470091120379      2.46222597016060     -0.21311394180752
  C   3.65789188018414      3.69476690537630      0.06126706318836
  C   4.59407259097359      4.14006797338393     -1.06319260932794
  C   3.93314615175987      4.07017520358191     -2.44561047028542
  C   2.61998340765049      4.71205492322896     -2.47617042421149
  C   1.53677413551188      5.22479680104947     -2.45552924850566
  H   2.33666720360670     -2.76435140656122     -1.21833026131497
  H   6.38184915728806      0.01643041714096      0.52501785363888
  H   2.07656297618252      2.53697459115832     -0.71861467010874
  H   4.22418401299517      3.57034644098152      0.98391421449511
  H   2.89902954744001      4.45830294458559      0.22739031109300
  H   5.48697974210007      3.51502870994203     -1.07444334135340
  H   4.90778579141329      5.16477804597918     -0.85518448569518
  H   3.81170414670048      3.02432923040703     -2.74012291658562
  H   4.58108222453038      4.53189131762551     -3.19231888717652
  H   0.57911441646562      5.68825389217212     -2.45627575338949
