20
Coordinates from ORCA-job 15525optt
  Br  0.88566950450217     -0.40076023557465     -0.02683803538697
  C   2.74836375231744     -0.18070022626822     -0.03611925133525
  C   3.54488077268157     -1.27516768780400     -0.06299492852078
  N   3.35156698080622     -2.61408488560056     -0.08143866608086
  C   4.62166676293354     -3.26830468426800     -0.09437149848606
  O   4.75097693318872     -4.45785425161888     -0.10583261845938
  N   5.61585429572441     -2.28078399306781     -0.08982968826129
  C   4.98397075881502     -1.14980891529248     -0.07205853732686
  N   5.51921701684403      0.09158752469204     -0.06309289078617
  C   4.73277382724391      1.21023444228620     -0.03755300922861
  N   5.37865231606559      2.44759134045921     -0.03512268401913
  C   6.71957139195968      2.66578539274408     -0.05288841032826
  O   7.58485493552779      1.82560909654440     -0.06695625573271
  C   7.04366399686140      4.10517627985321     -0.05416929504644
  N   7.28990007591133      5.22300342840837     -0.05530286698144
  C   3.36814102353325      1.10913063204142     -0.01829809208123
  Br  2.32605872200139      2.67475341003363      0.03743718398101
  H   2.47147801313439     -3.10230127103037     -0.08027282063592
  H   6.53016430118690      0.20897573904913     -0.07233166058741
  H   4.76857461876121      3.25491886441327     -0.02596597469625
