20
Coordinates from ORCA-job 15521optt
  Br  1.01602505636286      0.03348463311880      0.04794775056383
  C   2.87437182890186      0.05224890361178      0.04564192784538
  C   3.62867426406298     -1.06297115420781      0.04180980044802
  N   5.01181912860158     -1.00717775136746      0.04099127432777
  C   5.58460254383342     -2.31090675547006      0.03516798071191
  O   6.74452632338960     -2.57476921139276      0.03223095441843
  N   4.50690840490773     -3.16165579812894      0.03355960948033
  C   3.27219763537144     -2.50886830495365      0.03713567932358
  N   2.10959575919162     -2.98479323577410      0.03639784050054
  C   5.69058527396857      0.18456307427154      0.04414818729813
  C   7.12457816484841      0.17604736448139      0.04430443363415
  N   8.26609910200004      0.27245917423421      0.04505873833717
  C   5.00434297592063      1.36085275442224      0.04746337291944
  C   5.68222514375779      2.60613646572924      0.05049371465761
  C   6.24339523973163      3.66387800690455      0.05200580167577
  C   3.51860633497010      1.38648974695139      0.04783926211711
  O   2.89566030017969      2.41816152260146      0.04990043140931
  H   4.63607674929403     -4.16042217218503      0.02922646803657
  H   2.10106220811433     -4.00344135003194      0.03268406836819
  H   6.74664756259163      4.60168408718517      0.05399270392676
