19
Coordinates from ORCA-job 15536optt
  Br  1.23317467830690     -0.42856779478539      0.79376677565312
  C   2.97294329009297     -0.06536342886930      0.21973177246455
  C   3.51570035160885      1.14466467799948     -0.00024116333966
  N   3.15297368115879      2.45676924442490      0.06549476467342
  C   4.34803352100824      3.26444884843595     -0.24021449200626
  O   4.31655004047355      4.44214224515499     -0.35547743133431
  N   5.42238217982807      2.39017406061771     -0.40458034801431
  C   4.94686771515786      1.20569581746793     -0.28934961924243
  O   5.68043852596789      0.11417827969977     -0.39011571720953
  N   5.11140831222474     -1.13938284242247     -0.24085218837635
  C   3.86518856151506     -1.18643807838072      0.04507354868381
  C   1.86354032110162      2.98631734055908      0.03592699037754
  N   0.96180423085451      2.38917625257034     -0.72009610857816
  C   -0.21798472622230      2.98459199983276     -0.66931152974397
  N   -0.49091366996715      4.08527762556407      0.02326184260407
  N   0.47272131290873      4.62109259915642      0.73212388239387
  N   1.65754842695467      4.07978902329852      0.77068844658799
  H   3.48243235927488     -2.19281199315581      0.16295140695105
  H   -1.03280911224791      2.55524612283175     -1.23978083254443
