21
Coordinates from ORCA-job 15534optt
  Br  1.05308123409959     -0.04536225894109     -0.73253922115026
  C   2.82025471507025     -0.07161831357124     -0.14463208671130
  C   3.54167965150047     -1.18759139955368     -0.08688544796280
  N   3.36201381681256     -2.51737762751047     -0.35247392121424
  C   4.55803587951869     -3.20070522598283     -0.05700682761569
  O   4.72406109416613     -4.37456624452633     -0.18442902260014
  N   5.51265240273732     -2.24727114228016      0.41071847156042
  C   4.91020419176274     -1.12727312560869      0.37843384004866
  O   5.45415778279640      0.04271948919373      0.73272016820219
  C   4.75481045150909      1.22145228999571      0.67043561733049
  O   5.28952421465896      2.23633035267753      0.96892914758360
  N   3.42170628735102      1.13790410527276      0.25795963298643
  C   2.73064332394583      2.35690674557917      0.18012306683786
  C   1.98181306486491      3.03456143921456      1.07385444156448
  C   1.56552143507569      4.22253546438817      0.39769129453352
  C   2.10210124368154      4.15543214637301     -0.84283301032288
  O   2.81811519562390      3.02040804882052     -0.99192324770588
  H   2.53267558960057     -2.96651942225835     -0.70169623478242
  H   1.76513608804120      2.72989287197959      2.08326213816658
  H   0.95479925662552      5.01776544519748      0.78821087401484
  H   2.07201308055759      4.80737636154059     -1.69791967276346
