23
Coordinates from ORCA-job 15549optt
  Br  1.18313377438146      0.22979998245860     -0.41121168933342
  C   3.07098819151218      0.14523149399929     -0.23016186793030
  C   3.69278733155620     -1.10124880180322     -0.19123996392514
  N   3.04456909523188     -2.31385828053381     -0.28584262680563
  C   3.63229698002405     -3.51748497701932      0.08554000387723
  O   2.98498230192006     -4.53395382518280      0.17846444286050
  N   4.96669569291272     -3.43378092374232      0.36522966186097
  C   5.83705540281890     -2.35241155221555     -0.06337784172206
  C   5.08018305563158     -1.05606979569733     -0.06650345232277
  N   5.75425414641708      0.07674716104547      0.01078303928247
  C   5.05215568465998      1.20270803667117     -0.04119258314844
  N   3.72687860576435      1.27093309475055     -0.15975588006129
  C   5.78939754451615      2.47722315756368      0.03262855638628
  N   5.19937303896023      3.63897771300174     -0.17309245630055
  N   6.20653711882912      4.50102161104185     -0.01635608776697
  C   7.34484477806201      3.84725661895000      0.27349243297985
  N   7.11804141334198      2.55899909604632      0.31158371283084
  H   2.03883960519887     -2.33557586996477     -0.37119583707121
  H   5.38160523728275     -4.32979869184208      0.56534648172993
  H   6.24249326593160     -2.52520103325987     -1.06787695369023
  H   6.67813197401451     -2.26255008013952      0.62232053061088
  H   6.04458429811006      5.48909748187364     -0.11945779081811
  H   8.28717146292216      4.34193838399827      0.44387616847720
