21
Coordinates from ORCA-job 15544optt
  Br  1.36665904762527      0.39076847025933     -0.19393661864964
  C   3.17224048084304     -0.06416940699163     -0.18011440384752
  C   3.61643611901591     -1.33750454753384     -0.14190018384019
  N   2.80827733317932     -2.45914223715819     -0.06471247629820
  C   3.29208933833366     -3.67483120529433      0.41472519327902
  O   2.54859347209940     -4.49773696716764      0.87264260486220
  N   4.66054178925092     -3.90852244344971      0.22360231619901
  C   5.46618668375679     -2.95042962412692     -0.02770433776873
  N   6.72680287344671     -3.27601660869125     -0.50314000167687
  C   7.79780906961035     -2.62244224994146     -0.30831134333387
  N   8.06123258637702     -1.54322655619744      0.51785298467222
  C   7.22202502012128     -0.59075419330178      0.64500878561546
  C   5.87102782151328     -0.46688279791368      0.11681939751190
  C   5.34980155361390      0.89728110773670     -0.04523991111052
  N   5.97063270135323      1.98821991169252     -0.11563290406509
  O   3.97819547757850      0.99755961214767     -0.17855392565763
  C   5.03409283719507     -1.53382100581175     -0.04057208776718
  H   1.81200575765452     -2.32914413555800      0.04302344581877
  H   8.68748825275032     -2.98170200971946     -0.82059360904040
  H   7.53480686271334      0.24489118613283      1.27228784246299
  H   6.97605492196812      1.86660570088808     -0.06155076736570
