29
Coordinates from ORCA-job 15558optt
  Br  0.80674515070702     -2.06635246593231      1.71444768584253
  C   2.04731509095492     -1.31303288308234      0.49736775160018
  C   3.29276905537815     -1.92676806212848      0.30620875742118
  N   3.41008631372138     -3.28424589020829      0.58249111220971
  C   2.48652432996512     -4.22148522748804      0.07900893874282
  O   2.37832140933591     -5.32515763664995      0.55818895813157
  N   1.73117554024043     -3.77150318422439     -0.96510493008266
  C   0.50217284899042     -4.42911326911020     -1.36421802046245
  C   -0.38626613895084     -3.50136770204781     -2.19323000580796
  C   -0.80812980924629     -2.20864002982217     -1.47934721088350
  C   0.07577567489527     -1.01044574453347     -1.78532425803142
  O   0.62274333300727     -0.89054931591762     -2.84989119554200
  C   0.31098039977264      0.06176697321010     -0.69587527107966
  C   1.73403408556046     -0.20662615676483     -0.28239732135709
  C   2.79902330290818      0.44430260408266     -0.89981773065803
  C   4.07650767905500     -0.07463975297024     -0.75923062911324
  N   4.30687214645179     -1.28120527013555     -0.24877279698710
  H   4.28623312652590     -3.65537225961339      0.91426173833789
  H   2.04810898235045     -2.98083814051806     -1.50311162963920
  H   -0.01301079552155     -4.73883813342361     -0.45173775664966
  H   0.71320440944084     -5.33601885399963     -1.93647112609381
  H   -1.27466320003826     -4.07116159015325     -2.46626817964246
  H   0.11378885197886     -3.23732310689495     -3.12774814615730
  H   -1.80121436998301     -1.90068039408820     -1.82689997243254
  H   -0.89204918803130     -2.35400170962339     -0.40390205751644
  H   -0.39485084549553     -0.03687859817645      0.12557095254333
  H   0.22195387411708      1.04266359355151     -1.15939975790863
  H   2.62270867052501      1.31910542896274     -1.51034351387856
  H   4.93714007138462      0.45140677769966     -1.15445438490551
