28
Coordinates from ORCA-job 15559optt
  Br  1.06813942053666      0.34742489065207     -0.01007093885882
  C   2.94142526676303      0.20274257052196      0.01051339628511
  C   3.52894035484710     -0.96253699070487     -0.36569351475414
  N   2.79155073495479     -2.03852559167162     -0.86992396673232
  C   2.55106531703272     -3.32944061533015     -0.38203309626992
  O   1.66015197948834     -3.97772116980858     -0.88601048108271
  N   3.33391321010917     -3.84209530244290      0.60851138654738
  C   4.36887867151389     -3.22049485308661      1.41258371201835
  C   5.70874251230165     -3.12900542353730      0.68843178471694
  C   5.56957460204568     -2.35511403301472     -0.61818268673984
  N   4.91100639446656     -1.07150371396664     -0.38917755551828
  C   5.66455817953686     -0.02510596191601      0.04512376522318
  C   5.14605173165158      1.16388564098914      0.42825339685918
  C   6.00653156860810      2.21925450853535      0.84168212884355
  C   6.68445188276502      3.14318887944745      1.19825391927702
  C   3.69020332989457      1.39227676101228      0.41613380426686
  N   3.09372706722442      2.47314493164827      0.73251586084411
  H   1.97593637148164     -1.74672257083136     -1.39399107838900
  H   3.06185385677066     -4.78594291482080      0.83061860399506
  H   4.47689122412877     -3.82292136812116      2.31303804952481
  H   4.04577922475977     -2.23255899204511      1.74600839681211
  H   6.08925375784596     -4.12970299654771      0.47444716022576
  H   6.43031965311060     -2.62815809642527      1.33948268789837
  H   4.98467779731688     -2.91492965186824     -1.34437946927065
  H   6.54308360595115     -2.15363978542802     -1.06266604836784
  H   6.73267526512794     -0.19679828090461      0.05426336757199
  H   7.29243270125761      3.95856363211862      1.51011439647946
  H   3.76818431850883      3.18843649754656      0.99915301859427
