21
Coordinates from ORCA-job 15552optt
  Br  1.05841677336287      0.13221115360989     -0.82198400702676
  C   2.87546492102521      0.13170062461818     -0.33340135659280
  C   3.57863377150356      1.26260495864256     -0.08549569633586
  N   3.00359598419920      2.52764694460664      0.10175278369261
  C   1.77018582819071      2.68202709775020      0.80679716155486
  O   1.18418416079778      3.71052382198127      0.87414462878679
  N   3.63707465970632      3.68388532392841     -0.17272710333169
  C   4.90625981188633      3.63590897177109     -0.36641151382706
  C   5.67629573532296      2.43609805376319     -0.21768773646408
  C   5.03810921334648      1.25756197788993     -0.04742758963615
  C   5.70008671122852     -0.02837971507675      0.04496357756018
  Br  7.56544043404913     -0.07239046115565      0.26849348698651
  C   4.99216392167081     -1.17012756643888     -0.04631875452942
  C   5.62472695813813     -2.44846280009852      0.05661505250683
  N   6.07820567757762     -3.49957964453281      0.13388692701626
  C   3.52555757215428     -1.18231906365025     -0.30860546165255
  N   2.85265060857554     -2.24262918571176     -0.50093020363549
  H   1.48471352829293      1.75562499956950      1.31454069085033
  H   5.38407055496173      4.58206431603765     -0.58156021014828
  H   6.75535180105725      2.48624488487728     -0.24877858842271
  H   3.42881137295259     -3.08221469238117     -0.45586608735152
