21
Coordinates from ORCA-job 15550optt
  Br  1.05568532481942      0.91815598102632     -0.33728151609282
  C   2.84753725372525      0.47840773192576     -0.03196413349684
  C   3.28926033421310     -0.80681463222624     -0.12656769383028
  N   2.53260381971065     -1.93805087248610     -0.46561185414777
  C   2.78891438464216     -2.99218684999086      0.50212832906204
  O   2.28132080802337     -2.96568282907799      1.57762819561219
  N   3.71109279064260     -3.95379665631094      0.08315857777949
  C   4.90436806256471     -3.52173530951661     -0.08513604070387
  C   5.38309681472721     -2.16663738581948      0.05177770581085
  C   6.69197973308355     -1.71751941385303      0.24773409319935
  N   6.75502383541215     -0.38649300699038      0.44048452166522
  C   5.50520726005348      0.04285763473024      0.35448702371704
  N   5.06013314157657      1.30277386542866      0.44093838027657
  C   3.78608950042906      1.50693488685741      0.26291900304726
  N   4.62543045892056     -1.01065665391905      0.11470290342068
  C   7.83776326936481     -2.56165344397593      0.26522491950426
  C   8.77893713161040     -3.30221987545798      0.26746654987580
  H   2.75124369124709     -2.24330416633345     -1.40996152322630
  H   5.67820037940412     -4.24568822587486     -0.33090886196362
  H   3.42882266344969      2.52839604335194      0.33170511105696
  H   9.62728934238001     -3.94508682148743      0.27507630943379
