24
Coordinates from ORCA-job 15564optt
  Br  1.78264466209151     -0.99004937178635      2.16512330904517
  C   2.62190481984341      0.15652760868543      0.95670892372427
  C   2.91720975404298      1.44352041824402      1.22138888832710
  N   2.36971026878602      2.14510173722048      2.35589749513071
  C   1.03720261068546      2.55450267478372      1.94290288962730
  O   0.08359506609650      1.86980999400099      2.08889454795495
  N   0.97662206442418      3.76445911721314      1.16959226646920
  C   0.82433266354908      3.48753269879097     -0.19634797730281
  C   1.55446952885735      4.05107182685998     -1.16478808437706
  C   1.88499603835347      3.16936892596265     -2.31144646131835
  O   1.16044809588207      2.69414942424661     -3.11886238169563
  N   3.31588490931361      2.70893241992822     -2.21030401620227
  C   3.38811425607455      1.85668754306226     -1.08587781454903
  O   3.03344232013840      0.60039836927627     -1.37877839407906
  C   2.92545919003532     -0.37388176034776     -0.37906306230422
  N   2.99908449552012     -1.58857202809971     -0.67446438250639
  C   3.52778511857989      2.25718771606574      0.19079935538412
  H   2.94883950981936      2.95232180884100      2.56277991050074
  H   1.75742683543339      4.38595423827792      1.33644458719897
  H   0.17530258838224      2.64212937039605     -0.40150778052231
  H   2.28070376855548      4.81467110345755     -0.90723536660296
  H   3.90661987555177      3.51731058818362     -2.03850278911521
  H   3.17262989834980     -1.71944028867697     -1.66914153293317
  H   3.75757166163400      3.29130586541413      0.39778787014595
