23
Coordinates from ORCA-job 15562optt
  Br  0.86465446360507     -0.36359883136272     -2.03899322483190
  C   2.17892318908962     -0.74426313532164     -0.74794023874473
  C   3.19094803886508     -1.59731364861822     -1.00389950720190
  N   3.08408069053842     -2.60203927105154     -1.95580084985280
  C   2.08799758185273     -3.56362341186590     -1.80019369640769
  O   1.96515030048255     -4.50726664562618     -2.53083979252638
  N   1.31925230013113     -3.35632898609466     -0.62106704730962
  C   0.05991914037844     -3.32786961287383     -0.68867928881726
  C   -0.74424574818889     -3.10625809488662      0.53973003776210
  C   -0.80712052640459     -1.95642566786273      1.19469260541084
  O   -0.22454876349233     -0.80578405820042      0.69897030322044
  C   0.90222826351000     -0.35402619031502      1.30047609470252
  C   2.05618715526233     -0.24914773149299      0.61816936514406
  N   3.20615632840075     -0.02408834675953      1.37866284165892
  C   4.29430159415365     -0.56245737722127      0.99398410990335
  C   4.39041613742789     -1.51451912119048     -0.15229060838401
  O   5.38622702341060     -2.16694123590825     -0.37206523905853
  H   3.91037717533889     -2.91447018972069     -2.44766025033102
  H   -0.46956648868605     -3.46024419231642     -1.63761546807986
  H   -1.33250747483981     -3.93668774079603      0.91358260968568
  H   -1.37704978670946     -1.82566915849443      2.10807162889566
  H   0.86534135899592     -0.14545105160298      2.36533060188730
  H   5.19887804687804     -0.41552630041741      1.57737501327485
