25
Coordinates from ORCA-job 15561optt
  Br  1.29774748230941      1.02516752669360     -1.48682185628371
  C   2.33763176437431     -0.26814953683559     -0.57585489027986
  C   2.56182669113692     -1.47454680620116     -1.13542469462880
  N   1.92083319908539     -1.88297060356296     -2.32844547014551
  C   0.64694136678015     -2.44283056779753     -2.26894643827091
  O   -0.12585004891969     -2.44073157850503     -3.18766442987268
  N   0.45778457627584     -3.13119539879168     -1.06140130440218
  C   -0.01728113916430     -2.65557873477168      0.00835031929596
  C   0.43561968452714     -3.37967535704461      1.20443051401973
  C   0.90540043753813     -2.76304880646507      2.29103520951695
  N   2.14284445846304     -3.27872464264439      2.85209951702025
  C   3.09724409946213     -3.37132178793746      1.84525705329369
  C   3.33945393852872     -2.27085104097707      1.07804337962402
  C   3.08277925826976     -0.94438033977776      1.58647642348469
  C   2.71954745013738      0.06413554358191      0.77661109324321
  C   3.41850825731112     -2.47526729232354     -0.39754959294586
  O   3.94966215806269     -3.40428256141484     -0.95322445072091
  H   2.06887521356485     -1.34163839623480     -3.16918219196523
  H   -0.49105423837817     -1.67342600782866      0.09283881317828
  H   0.84619161931740     -4.35132068123527      0.95148223839972
  H   0.58735646203204     -1.77972021731682      2.61491160617386
  H   2.06024795001293     -4.07079881016975      3.47358456091249
  H   3.49039447611740     -4.34857026244793      1.57999701396152
  H   3.24058374439461     -0.77796699013570      2.64576025035279
  H   2.60871113876077      1.07969335014386      1.12663732703850
