21
Coordinates from ORCA-job 15566optt
  Br  1.31058758213363      1.55053255702520      0.88469225264047
  C   2.93579907994189      0.70694355831947      0.42976434745907
  C   2.97125217529390     -0.64696148490754      0.27751425023959
  N   1.85138142890955     -1.49053972816327      0.42473544525921
  C   1.91088299616807     -2.61638466375488     -0.39997710947276
  O   1.99297271982227     -2.56119112767611     -1.59058650942952
  N   1.95046836937578     -3.82353932142991      0.32629841119461
  C   3.08802715688295     -4.35519732115456      0.43852601887249
  C   4.40617198024198     -3.89048779400911     -0.13428848845658
  N   5.24255789589088     -4.74943446151735     -0.54407761998557
  C   4.81459688047479     -2.46439324601678     -0.18706907276356
  C   4.25144333934712     -1.21420280019468     -0.00804510993020
  C   5.35567470907454     -0.33647445755194     -0.17018156377625
  C   5.16841888578204      1.07158918429015     -0.00528287296364
  N   4.00484760647819      1.54230668695122      0.29790360023909
  N   6.46656634657862     -0.98959797239079     -0.42991220332001
  O   6.11779558683035     -2.28677110566654     -0.43818020672797
  H   1.56814002148979     -1.66780298253108      1.38092616923242
  H   3.16086959701979     -5.31026166146262      0.96006190955133
  H   4.89352469565122     -5.70102053516263     -0.41931074767440
  H   5.99502094661261      1.76288867700375     -0.12251090018784
