22
Coordinates from ORCA-job 15573optt
  Br  1.26026018458820     -0.02505751885168      0.96711741706434
  C   3.05416125939038     -0.07313529237057      0.36147983470402
  C   3.70675670356136     -1.26187913261909      0.10529702537551
  N   3.07513775403962     -2.49957851754710      0.02849370671423
  C   1.81791553742528     -2.67483323653134     -0.60798995136284
  O   1.25276270851434     -3.71789437326263     -0.64182295628729
  N   3.70690524698201     -3.65544703043381      0.38014496507432
  C   4.97496376531936     -3.62692995225696      0.41021421739768
  C   5.79339980070153     -2.47482298906878      0.00912147715651
  N   7.03397316346431     -2.48214608526594     -0.22663688728391
  N   5.07608031997629     -1.26546009172543     -0.08255685328016
  C   5.74001968611755     -0.05423195881814     -0.18060356843288
  C   7.01495461780134      0.37103894230977     -0.36498918015209
  N   7.05064870730276      1.77420850818187     -0.32315461869480
  C   5.85837044338326      2.23582802935144     -0.10199441453715
  C   4.92191693242853      1.14498521581526      0.01532184465172
  N   3.66321798326759      1.12862040486519      0.30194077827488
  H   1.47818186928873     -1.75469512624079     -1.09247605628902
  H   5.48566050769891     -4.54089291950669      0.68967993824848
  H   7.42385157273121     -3.41153803292339     -0.08576442466815
  H   7.90956360218465     -0.19509679225359     -0.53609053382013
  H   5.63129763383273      3.28895794915241     -0.02873175985328
