24
Coordinates from ORCA-job 15579optt
  Br  1.40834313644923      0.15550159355465     -1.19633991606963
  C   3.20409513990204      0.05734937570208     -0.57505512186727
  C   3.74445911895904     -1.20043095601791     -0.29309030926711
  N   3.03721401550804     -2.38073582892087     -0.43518597913890
  C   3.40347610742073     -3.56889845518411      0.16477822536659
  O   2.63614409533209     -4.50310861965276      0.23473587130023
  N   4.67989320896307     -3.59612332963015      0.67424533047416
  C   5.14149246823926     -4.82485489905620      1.24324789304702
  C   5.54273181992215     -4.67152536842344      2.69473414998004
  O   5.48223495509994     -3.66315229554652      3.33071243979531
  C   6.06969210662838     -5.92175334196442      3.29594914726473
  N   6.48101959822468     -6.90664232892183      3.71213216020536
  C   5.68487406598544     -2.58260672608763      0.38530362526689
  C   5.05993330860237     -1.24118461715527      0.14765037220238
  C   5.75061569422777     -0.05151267916831      0.30798107507266
  C   5.11357934756565      1.13829882537580     -0.00211151800769
  N   3.85788941749493      1.18064050641910     -0.44431370497371
  H   2.06873323183066     -2.33895259299262     -0.71891074858505
  H   6.00682937263995     -5.23050568264998      0.70161427219342
  H   4.34586268909875     -5.57106904560208      1.17994336536717
  H   6.27727336591428     -2.87646277771455     -0.49251662778764
  H   6.36154099657647     -2.52082181201770      1.23836400768775
  H   6.77299726740470     -0.05206676688753      0.66295102081609
  H   5.61707547201031      2.09061782254228      0.10418096965719
