21
Coordinates from ORCA-job 15581optt
  Br  3.11591747654002     -0.10477380880308     -3.45920076469746
  C   3.62392371959665      0.34134229547519     -1.70710299320453
  C   3.61193912723461      1.60600202895338     -1.25381111893732
  N   2.75877551082993      2.58997014680973     -1.78857554578602
  C   1.39450127096604      2.32478081977485     -1.43866019904590
  O   0.76056025771945      1.42326074968621     -1.88132179002478
  N   0.87292535316628      3.28543371946621     -0.55697102575247
  C   0.81617223264578      3.12862171659872      0.68966081229865
  C   1.40755308625822      2.01386197161303      1.53608085911884
  O   1.59441360858391      2.18810712383078      2.69730875289608
  O   1.75235955459414      0.91960375256687      0.82634049236761
  C   2.51735170766414     -0.07978642296989      1.44318354222435
  N   2.02161863566996     -0.70932817286480      2.39758160520962
  C   3.84042057327058     -0.32296493971157      0.79698253109625
  S   3.86193052580517     -1.15032181973200     -0.74138420510935
  C   4.86650104025848      0.56648700105127      0.71482390683343
  S   4.43799633336742      2.19565090710456      0.26264633787672
  H   3.03508978926963      3.53709503515478     -1.55615299197565
  H   0.38171882449814      3.91306907410202      1.30547582181384
  H   2.66691482970528     -1.42001548484291      2.73772171323298
  H   5.83941654235615      0.22190430673662      0.38437425956513
