26
Coordinates from ORCA-job 15587optt
  Br  1.56971891196526     -1.40111968643823      0.10048015455730
  C   2.46469625716347      0.21891073533244      0.29007041436520
  C   1.83201512516418      1.40417352580928      0.30516432745934
  N   0.45109615756440      1.51908123416855      0.11405422724559
  C   -0.18279314317657      1.32565722799796     -1.10869789097666
  O   0.20672920017372      0.59772766443973     -1.97461212746147
  N   -1.40889776971982      2.02761627248467     -1.17357955042289
  C   -1.42787774879812      3.37016859064582     -0.78069449556031
  N   -0.32781555795332      3.97314346347024     -0.75863608876987
  C   0.00208670759743      5.07367297130964      0.08827310873035
  C   1.02163326151585      4.50784103166736      1.10135937291490
  N   2.17348685366136      3.91297190323799      0.43319828620641
  C   2.65007392959353      2.61097247187063      0.56341233948632
  N   3.90847906146310      2.54861242697723      0.81511208772998
  O   4.54724921971544      1.33182078056595      0.74088511916781
  C   3.91773961843901      0.14890381636863      0.47048245904759
  N   4.57096081177150     -0.92494500609602      0.40697238230667
  H   0.01267816319972      2.22132145326327      0.68067917928360
  H   -2.05394723446935      1.68565797370428     -1.87057528709950
  H   -2.39095360849919      3.75749953756055     -0.43089486322851
  H   -0.84928573632544      5.51438216025702      0.62390918489207
  H   0.49355366932430      5.84976237698661     -0.50112424741485
  H   0.52989245591103      3.77913250441270      1.74996580172997
  H   1.35822999418498      5.31089146849004      1.76108465499568
  H   2.96864352888980      4.53564626350596      0.40288034267771
  H   5.56160787164373     -0.75250316199236      0.56983110813756
