26
Coordinates from ORCA-job 15586optt
  Br  1.05294578054525      0.40949733251364     -0.30287328759221
  C   2.91036584120610      0.18234576194463     -0.30633281598048
  C   3.48863664657024     -1.00968144732735     -0.57467403539225
  N   2.72601041881955     -2.11095230939246     -0.97948560832521
  C   2.42371878738309     -3.28360443498077     -0.28349084752324
  O   1.42812116238565     -3.89964716418554     -0.57525207025946
  N   3.23855551008607     -3.72289907774829      0.73944685474404
  C   4.46838456160565     -3.28870276066291      1.31236326079069
  N   4.60667028915559     -3.09132659657270      2.54906657255390
  C   5.67826491954804     -3.24974462103496      0.41651488328717
  C   5.44281504607616     -2.47183579346678     -0.87048089821716
  N   4.86331268468426     -1.16582180583335     -0.58673938755395
  C   5.71995009527559     -0.12481386560526     -0.20887010102558
  N   6.98116254039768     -0.17080489821532     -0.07842365054482
  N   5.08248665808501      1.07906804285678      0.00961031543537
  C   3.72934798539340      1.35811652353177     -0.01454830958445
  O   3.31133201154478      2.46772742001615      0.20574740633586
  H   1.89968044999826     -1.84302424242380     -1.50171340612587
  H   2.74496319479364     -4.41873415768868      1.28215291894400
  H   3.72329023975849     -3.17225802764941      3.05278454549591
  H   5.95061064312852     -4.27922372682846      0.16972724256951
  H   6.48450599684039     -2.80830371844722      0.99952074959615
  H   4.76943314075827     -3.00160209429776     -1.53760757620544
  H   6.37445806954008     -2.32530447627813     -1.41389740249802
  H   7.38402844127217     -1.08347289107560     -0.23902411973523
  H   5.69594888514798      1.84400302885181      0.25647876681076
