21
Coordinates from ORCA-job 15584optt
  Br  0.97046393480550     -1.40246975270654      1.24148511463552
  C   2.29879425776410     -0.36300739999334      0.42689715349107
  C   2.24956777917298      1.02488160377059      0.50172863541428
  N   1.21807533222312      1.70786599961067      1.21543425399089
  C   0.34459742637001      2.36050639186347      0.28752830180355
  O   -0.75345990359646      1.99445287474678      0.01593841426564
  N   0.90211905658239      3.50945632438983     -0.28362738689191
  C   2.23732327102492      3.88206743562780     -0.25529219299631
  N   3.27964714100462      3.15963725901092     -0.17291830874713
  C   3.24671963808671      1.76822934945310     -0.13176075959590
  C   4.29689277496620      1.07623989874455     -0.74475270177037
  N   4.34390053510363     -0.23629436216207     -0.81880302074643
  C   3.36555572558569     -0.95934045885378     -0.25853865216993
  C   3.46334543827777     -2.38276503835157     -0.37507225990226
  C   3.54330603135204     -3.57315869005171     -0.47653092892936
  C   2.42376014663246      5.31666474353939     -0.40345784180645
  N   2.51452602090613      6.45093850560199     -0.53328340200392
  H   1.64282063731713      2.40325817693738      1.82487499528101
  H   0.24806949631935      4.12587009358240     -0.74976087430561
  H   5.10057793638909      1.63803695445229     -1.20660572631914
  H   3.61239732371257     -4.63106990921213     -0.56748281269724
