23
Coordinates from ORCA-job 15594optt
  Br  1.92408442458630     -2.12758199494262     -0.72981883963626
  C   3.01360442097020     -0.70579751283842     -0.18563348200770
  C   2.65549398070645      0.57337111428766     -0.39994042434037
  N   1.52079819218754      0.97157136102385     -1.12635659802682
  C   0.21514963266028      1.03367610494652     -0.64865918295922
  O   -0.30597134010139      0.27031656478505      0.10581686256474
  N   -0.25227450514246      2.29494764293460     -1.14635908092718
  C   -0.61824072731237      3.05190120880056     -0.20483681543861
  N   -0.26728007077475      4.41591936546969     -0.29138533773249
  C   0.90535497085397      4.63055082952285      0.12169475256048
  S   1.77079623579495      3.34033897216369      1.08029989565965
  C   3.32900374272058      2.89204269304991      0.38990512364724
  C   3.60784147215457      1.63389306315159     -0.01404129282963
  C   5.02378713518681      1.17130574708869      0.03485700214089
  N   6.08293809211202      1.81579255126831     -0.22511465545251
  C   5.15643364669393     -0.24146877490149      0.47848188469212
  N   4.21829205052524     -1.09728203901981      0.40508165029349
  H   1.70436661274536      1.76667632664043     -1.72273936157718
  H   -1.04177817849596      2.70709732189851      0.74191641062595
  H   1.36071289628404      5.61330267666691      0.04279778827159
  H   4.15301497893450      3.56416884092824      0.59835031731430
  H   5.88167725116091      2.75158538977505     -0.58235709848660
  H   6.13119508554926     -0.55032745269978      0.84504048164412
