20
Coordinates from ORCA-job 15592optt
  Br  1.06950637137325      0.14114250349048      0.85106681058198
  C   2.84067535686056     -0.10438189944240      0.30948789845408
  C   3.50328387671231     -1.27559589746955      0.13216247494233
  N   3.14764343154855     -2.61144716487574      0.22162740454841
  C   1.86541482549163     -3.13366493684725     -0.11566674187503
  O   1.02035837801974     -2.43490982670138     -0.60889364622589
  N   1.73157020035169     -4.45854936509394      0.16432916274540
  C   0.56390512351915     -5.15463998096970     -0.15661647081642
  N   0.37348759637628     -6.38998370789388     -0.00465216835473
  C   4.37307477131686     -3.38178689304403      0.20580910137182
  O   4.41074019013435     -4.57798446844153      0.32595114741215
  N   5.43840814097158     -2.51545920300307      0.03797486646598
  C   4.94545021272151     -1.31212150818735     -0.01084050225398
  C   5.71935933368147     -0.11492066713794     -0.16689794948485
  N   5.22171710441741      1.07214234869083     -0.13359509101860
  S   3.66123566890547      1.40262983913310      0.14451021246486
  H   2.56284095549202     -4.95755833050007      0.47122248290635
  H   -0.21272716452296     -4.51383898120674     -0.56199267065839
  H   1.18809790385130     -6.86665191245374      0.38391968583362
  H   6.78795772277778     -0.21241994804607     -0.32790600703908
