22
Coordinates from ORCA-job 15595optt
  Br  1.21451582169747      1.42204766314847     -2.12914127746050
  C   2.56582340338238      0.58657649146643     -1.13550717445507
  C   2.49905668829938     -0.72741343193425     -0.84140748551350
  N   1.39985033691325     -1.54048392461238     -1.21721113306170
  C   0.74355798565062     -2.08569981077287     -0.06021372512973
  O   -0.17754771867041     -1.55507657869969      0.48488122432609
  N   1.30582301388629     -3.27808277629863      0.33194514119006
  C   2.65243532504852     -3.60118375470583     -0.00107527183925
  N   3.03234987434011     -4.74240007729491     -0.37990889391374
  N   3.62378401049859     -2.62022454605998      0.24449362091116
  C   3.58106031735530     -1.38719426569677     -0.06155293288445
  C   4.67995679122873     -0.49849524173096      0.36697912653025
  N   5.73549396839080     -0.76793323055733      1.05205904208510
  C   6.38547884529854      0.49656116750958      1.12830144657701
  N   5.81008954966319      1.49313697441694      0.54663603933398
  C   4.66137202824272      0.91397807126774      0.01038025321306
  C   3.66772146052242      1.44949563656300     -0.71061109906007
  H   1.69750740953494     -2.28262473522370     -1.84506007478178
  H   0.86411602092333     -3.77488300576325      1.09324488583085
  H   2.23107073062662     -5.35141774078849     -0.53406323166012
  H   7.32210388050936      0.57773223689252      1.66177653477585
  H   3.65138025665780      2.49658487887438     -0.98194501501349
