22
Coordinates from ORCA-job 15590optt
  Br  1.87408340151007     -1.38368877609478     -1.06755634729332
  C   3.03394851029188     -0.06028161682830     -0.40732774278801
  C   2.55917615460749      1.10454348490390      0.06337332699972
  N   1.19114739728311      1.43894731908011      0.10657127279207
  C   0.43923440192741      1.85562475968168     -0.96670045647579
  O   0.54792632174323      1.48077108132462     -2.09763858016366
  N   -0.55688368514016      2.76903088239098     -0.54712960720770
  C   -0.36350929611008      3.78450715654666      0.37464906926631
  N   0.73938460528964      4.28461500466047      0.75295087450195
  C   1.94388648762123      4.04496336755102      0.05873026408249
  N   2.17911225385677      4.46656145732722     -1.11031199340074
  C   3.09078057476220      3.41186853177511      0.78606586412730
  C   3.42704638831503      2.12322375659944      0.66810592571544
  S   4.94446164139513      1.53408835169191      1.35188537478286
  C   5.20626750275937      0.16035353727070      0.31331388008176
  N   4.36531493599955     -0.42915616221579     -0.43349056086726
  H   0.91783080903813      1.83443747623920      0.99520487377492
  H   -1.40503013450228      2.76797737866333     -1.09345715878850
  H   -1.28649352997219      4.16191832549693      0.80984524095003
  H   1.36272494583925      4.93126561351067     -1.51062782993066
  H   3.75977398666692      4.10159664889546      1.28741329634589
  H   6.22781632681827     -0.20816757847058      0.34613101349490
