21
Coordinates from ORCA-job 155optt
  C   -3.75432135401350      0.77497628194712     -0.00259762085795
  C   -3.16496135298070      2.04253281124545     -0.00004180574254
  C   -1.78731553028310      2.18886628440352      0.00094066844421
  C   -0.99786692079960      1.04270541705043     -0.00067518349807
  C   -1.61487159702920     -0.21122377021803     -0.00320193727218
  C   -2.98653226057983     -0.38020698836242     -0.00426119584686
  C   0.42580164035277      0.76662479507741     -0.00032876131068
  O   -0.69830883882785     -1.22376250528003     -0.00444374124578
  C   0.53044673113267     -0.62704023300191     -0.00258929325989
  C   1.58625230409910      1.53472717629885      0.00179669817126
  C   2.81024156747309      0.88560832619870      0.00164696536179
  C   2.88429842101598     -0.51028173254438     -0.00057984733336
  C   1.74066698282236     -1.29499281382742     -0.00278550422646
  H   3.72388788562855      1.46500631738177      0.00325880287144
  H   1.53483900904752      2.61596039414315      0.00361691079898
  H   -1.33549830538107      3.17244899635535      0.00303211636641
  H   -3.79631968543993      2.92106258057171      0.00115196563377
  H   -4.83320869204270      0.69181842360284     -0.00335389262336
  H   -3.42919131982982     -1.36643149196136     -0.00637279520101
  H   1.78319135102534     -2.37536353633899     -0.00456865531032
  H   3.85376996460992     -0.99103473274176     -0.00064389391938
