25
Coordinates from ORCA-job 15608optt
  Br  1.92802828351430     -1.39655163786566      2.07513137649774
  C   2.85144931338522     -0.26598998984010      0.91111598378696
  C   2.63873828608731      1.07320480005935      0.85170008049731
  N   1.58727702280343      1.71190567553200      1.55012433009382
  C   0.30298198672919      1.60693544238587      1.01959217868545
  O   -0.11522948434528      0.63962767595681      0.46958203660661
  N   -0.44033754196603      2.86484462457388      1.07047313306571
  C   0.10180999919066      3.54872266839195     -0.07408227811712
  O   -0.33603368072737      3.47628352371148     -1.17193669710183
  O   1.25995316721509      4.16799121433272      0.26314887299506
  C   2.33992744826117      4.09215708015526     -0.68284326788645
  C   3.51439601954686      3.33852607489011     -0.05583475241403
  C   3.50091765219406      1.81642387241076     -0.04402079199828
  N   4.37527122302144      1.25342449647087     -0.81182696848637
  C   4.51533350914751     -0.12900930414700     -0.83644837339172
  N   5.26469432665754     -0.79503808637051     -1.61062012303177
  N   3.77062024013070     -0.84219079461235      0.11816315230679
  H   1.82464478222553      2.63853309300768      1.87075749507408
  H   -0.15502164710403      3.37963568657829      1.90069484642333
  H   1.98249937949858      3.62737279310070     -1.60112698977966
  H   2.64813767764795      5.11212420919387     -0.90423709908720
  H   3.64726582153887      3.71146786460239      0.96486901261369
  H   4.40978267518587      3.60726084389836     -0.61487514879897
  H   5.76108752328055     -0.16079724231904     -2.22910891372687
  H   3.91380601688083     -1.84186458409771      0.13760890517371
