21
Coordinates from ORCA-job 15607optt
  Br  1.68483957024432     -1.14961858788133     -1.65948688862839
  C   3.08128754681042     -0.11905066089876     -0.96401021137213
  C   3.40532464933192      1.12074104952162     -1.37364861654381
  N   2.39365183773368      2.03217736061234     -1.73475054131430
  C   1.38896390323412      2.21106515875603     -0.76557515309369
  O   1.14486816854461      1.36504546898903      0.06019728929637
  N   0.73813450445029      3.42823477104303     -0.71537091230231
  C   0.60887159326558      4.11466046819700      0.55723433900294
  O   -0.20675854973164      4.97312799098094      0.70851796499508
  N   1.69198295974540      3.83345940538207      1.33700710931615
  C   2.25227622271710      2.82855953670856      1.85646369665115
  C   3.66810271707130      2.73324356486453      1.45866177080418
  C   4.14453489514207      1.61254974849133      0.89073391597190
  S   4.95794416298698      1.71795093578186     -0.68656754131499
  C   3.73682431993499      0.21109666208003      1.22087402580544
  O   3.54538599857608     -0.21807566882914      2.30461646355359
  O   3.68664938337085     -0.66721436918849      0.11319530708370
  H   2.68443980290823      2.85563657221080     -2.24035903959373
  H   0.70915030495638      4.04821643631933     -1.51219560274131
  H   1.72691497552055      1.98150776006879      2.29351095401929
  H   4.08261103318671      3.67968639679039      1.13495167040488
