22
Coordinates from ORCA-job 15604optt
  Br  1.42169905914114      0.26842576182326      0.13881830330820
  C   3.04066693699566     -0.64294301340974     -0.08520159887609
  C   3.42713885473816     -1.65775826970052      0.72394214521788
  N   2.55479198334747     -2.37159490732417      1.57948916893005
  C   1.97295726798876     -3.56944456808458      1.16691156399340
  O   1.20472581796111     -4.19532317680569      1.83911173403181
  N   2.38420086757800     -3.88377191579363     -0.15082727638021
  C   3.43502692139924     -4.53088274081329     -0.32095383386867
  O   4.06819492930418     -4.51560100345329     -1.53332892190882
  C   5.45700537746595     -4.46201138129544     -1.47618822738397
  N   6.22200261357807     -5.43958893833259     -1.55544683638371
  O   5.96531109570934     -3.20161849406885     -1.40141415304179
  C   5.15959914627534     -2.22292511139872     -0.87736961389892
  C   4.63862988537110     -2.33242340425931      0.35725959111136
  C   4.79099571155036     -1.10860364852240     -1.74726673821296
  O   5.25805144919764     -0.84133865815800     -2.82519587420158
  N   3.79873392350594     -0.29929839607590     -1.16274415722616
  H   2.17028337991437     -1.96678170436397      2.41980424590527
  H   3.97399409832342     -5.09526539890238      0.44570398348042
  H   5.69879104093488     -6.30018907991167     -1.68847457075621
  H   4.98906420811435     -3.11905982805645      1.01444085969609
  H   3.52213543160545      0.48999787690736     -1.73206979353540
