20
Coordinates from ORCA-job 15600optt
  Br  1.66636485257417     -1.25488317725688     -2.31024026045951
  C   2.64088741358821     -0.41282715592139     -0.97537592218709
  C   2.39241981822799      0.85524193142845     -0.61121433453993
  N   1.36475837105840      1.65556616425196     -1.17632186794823
  C   0.51231717531808      2.10581537249979     -0.12013690758501
  O   -0.34577995585087      1.43893385963134      0.35427230519400
  N   0.83407388194230      3.39785949304861      0.35535793851567
  C   2.02193778672409      3.60145263718829      0.71128043045211
  O   3.10213513584323      2.78758578658666      0.75517524264290
  C   3.22456215320478      1.43603455818975      0.46168484406521
  N   4.13696241293564      0.86595881744049      1.11924021528685
  C   4.41939931634183     -0.47817125682614      0.83869746124674
  N   5.24393928669642     -1.14725725812896      1.51972782897821
  C   3.72912826130486     -1.16881468637291     -0.31669341754410
  N   4.04079753204807     -2.32423562232644     -0.71401771821683
  C   2.41330147697028      4.91768274883906      1.18651019062506
  N   2.72221709325640      5.95710759558439      1.55058109034460
  H   1.74741143627129      2.43265443420367     -1.70707741181492
  H   5.64699944873613     -0.56862790471805      2.25669864141440
  H   4.80916710280865     -2.68207633734171     -0.13814834847012
