21
Coordinates from ORCA-job 15603optt
  Br  2.16546790140801     -0.83264978772655     -2.37636828789225
  C   2.77513097935051      0.12237125846528     -0.88671774837165
  C   3.12276543443360      1.40756243330016     -0.96139444371953
  N   2.81533493372070      2.25779304111555     -2.03183985127110
  C   2.06855304056490      3.39408035709719     -1.87015398888871
  O   1.98918929009272      4.26470135708051     -2.69355560479979
  N   1.42922611646199      3.53109920494287     -0.60116250704814
  C   0.67749394585682      2.59545243863959      0.08695268193889
  O   0.39717499103665      1.51232529165717     -0.36294064259134
  C   0.25617420038614      3.02329980481207      1.45969496041625
  C   0.36463023919200      2.28762605212938      2.56341702845017
  S   1.04853055591086      0.67368445191440      2.78675557231825
  C   2.38070181440040      0.72516783374501      1.60875069892010
  S   2.61541094383625     -0.74131213843810      0.63182666866443
  N   3.00145233462792      1.80176931505135      1.41325800967835
  C   3.72217703988099      2.06028622471485      0.24740721898465
  O   4.64113051092436      2.82531129031167      0.18974386688294
  H   3.21988203748820      2.13223075942893     -2.94792020583931
  H   1.38390818254046      4.49204972779427     -0.29321231061494
  H   -0.17431498046020      4.01439511532596      1.55695656261253
  H   -0.01601951165329      2.68175596863841      3.49750232217019
