19
Coordinates from ORCA-job 15615optt
  Br  1.23323000443450      0.15364646071092     -0.59670909102004
  C   3.01796755494666     -0.12648890823609     -0.15070202984737
  C   3.58719758574394     -1.31187609374354      0.11197000645736
  N   4.97890824245386     -1.36087424725970      0.39261759648336
  C   5.64272365470917     -0.22390197169419      0.89212798953310
  O   6.67893324355181     -0.24916959263814      1.46868535506493
  O   5.00970879286811      0.94288006680157      0.66735794467927
  C   3.84794075625325      1.08768647060952     -0.07621434187148
  N   3.52967825032074      2.19654498521447     -0.55211556842911
  C   5.72964770481085     -2.50463433773374      0.06831439380631
  O   7.03373448862810     -2.23095124594002     -0.20450735579916
  C   7.96701313846481     -2.66027299236462      0.71185751111332
  O   7.71680270825536     -3.26236873618318      1.69458612866888
  N   5.29495477636609     -3.66822775152915     -0.08653283148986
  S   3.72003953403366     -4.10371762178529      0.22287571266592
  C   2.81438730817330     -2.59537708887762      0.24218835356017
  O   1.62512541236475     -2.63304586894195      0.37206612260110
  H   4.23801957152643      2.90350495124000     -0.35990503372250
  H   8.95198727209453     -2.34235647764923      0.36103913754581
