23
Coordinates from ORCA-job 15618optt
  Br  1.15630596086436      0.15331039228324      0.18637348516044
  C   3.01891357441781      0.04461116805995      0.10003025636902
  C   3.67927501091164     -1.12488445035368      0.06093206484076
  N   3.30674556166977     -2.46501152001233      0.06654927696825
  C   4.41037737831954     -3.26494376267001      0.03390620008373
  O   4.51818566240923     -4.44452861906676      0.02511894649560
  O   5.51824532374148     -2.40326212263697      0.00983212714738
  C   5.10040893299046     -1.10891248046109      0.02451325265738
  C   5.86766015926190      0.01166875360942      0.01258969804575
  C   7.35526818565407      0.02651826765135     -0.01116166243094
  O   7.98524602254436      1.06269364652464     -0.05729903396349
  N   7.99421509257632     -1.19381141705260      0.02761422456603
  C   9.38472920312093     -1.29983953384558      0.00089167488969
  N   10.05038063670262     -2.37008660590088      0.05149816501230
  C   5.14287473343702      1.30559656985526      0.02091349348308
  N   5.58266792936585      2.49029424824567     -0.01712400302588
  N   3.73007287864593      1.19196079947352      0.08440866363920
  H   2.37261272694307     -2.83779321849754      0.07800551237887
  H   7.45515889261096     -2.04463989487241      0.07645606742647
  H   9.87940576942079     -0.33731897243214     -0.07371079766569
  H   9.45762319356109     -3.19808359589470      0.12343047259108
  H   6.59648518573831      2.49828549608199     -0.05716303163402
  H   3.25714198509242      2.08517685191166      0.09539494696497
