21
Coordinates from ORCA-job 15628optt
  Br  4.06557681832466     -1.24918467643272      1.44477168191518
  C   3.18199808197935     -0.02749506808148      0.35083003378801
  C   3.79009732868699      0.93919193429210     -0.34692605791992
  N   5.15958197860897      1.14586166284366     -0.33001458887176
  C   5.83807943375766      2.09287143367403     -1.06107629313610
  O   7.02309834232427      2.21770606017095     -1.02506347085231
  O   5.08056238852814      2.89982038545518     -1.84273168933128
  C   3.71365609300570      2.77225716556715     -1.89298709476192
  C   3.03766542353863      1.85700423693039     -1.19914643812309
  C   1.61161800149076      1.61617314995272     -1.17411091842996
  C   1.13187749041164      0.60628556531227     -0.42135467014878
  O   -0.19128507771774      0.41303682862922     -0.43352734039175
  C   -0.71760251170513      1.40282215220706     -1.29258108295465
  N   -1.92586386862745      1.52219828513392     -1.54565501007469
  C   0.44719842260728      2.22838684925203     -1.79831591946480
  N   0.26936767515058      3.20778013524170     -2.57730082901794
  O   1.81066731451956     -0.23164874357722      0.34123531211715
  H   5.74993503471926      0.55570272989030      0.23802232238634
  H   3.28409184211569      3.49703479963603     -2.56450137144410
  H   -2.49396899904440      0.82651961015521     -1.06330540656495
  H   1.14664878732557      3.66167550374748     -2.82226116871869
