20
Coordinates from ORCA-job 15622optt
  Br  1.09598209447956      0.08378740648090      0.07862725992215
  C   2.95556162356845      0.04245275211158      0.06615892791157
  C   3.64359219481259     -1.11463894900119      0.05839567473376
  N   3.32158980334209     -2.44117330650338      0.05556221219105
  C   4.47442997550693     -3.21934302959324      0.04836863739781
  O   4.56979646193168     -4.39714104513548      0.04460007706429
  O   5.54928914939492     -2.35021776510139      0.04598022543333
  C   5.07023922965007     -1.07889436034033      0.05208398164111
  N   5.78928162670465     -0.03172509968510      0.05276866062649
  N   5.08741576960844      1.11541899886964      0.05898307148413
  C   3.72782860358869      1.26860362848089      0.06486981062486
  N   3.11026077147693      2.41824368861747      0.06899836017515
  C   3.81467326329806      3.56271710392388      0.06782367320561
  N   5.11209663836633      3.78682062371793      0.06558305523209
  C   5.16867722007205      5.15053922628487      0.06594048568653
  N   4.01849734948525      5.74173053708734      0.06789492064580
  O   3.11303023257799      4.69855447781847      0.06921419324380
  H   2.39648008918311     -2.84115752135272      0.05816459666126
  H   5.63814056391746      1.97741622866200      0.05922596960233
  H   6.08813733903474      5.71400640465785      0.06475620651688
