20
Coordinates from ORCA-job 15620optt
  Br  0.88799917556067     -0.63414599460830     -0.37003779747745
  C   2.66305544349032     -0.13812357185101     -0.02882127592250
  C   3.64611790184207     -1.03864161816741     -0.04962207934703
  N   3.65189765937324     -2.40428900507356     -0.28405244271573
  C   4.92342010423214     -2.91584934043671     -0.20989269891148
  O   5.30415541684758     -4.02887911478981     -0.34232618696289
  O   5.76770502297584     -1.84551867687145      0.07089754443525
  C   5.03235175704133     -0.71238169728763      0.16716711066949
  C   5.52348922076697      0.50953771445476      0.40436850374710
  O   6.87433012072655      0.72098709414554      0.57318462578914
  C   7.66963002378109      0.48004361227775     -0.49331702180364
  O   7.30708066786835      0.10003798459112     -1.56018218669180
  C   9.14167480617456      0.76572636001260     -0.18549886384584
  O   9.51907817056244      1.19799468159419      0.85650205605229
  C   4.68779366519455      1.70251136039874      0.51907417508904
  N   5.08454551753227      2.87815228718376      0.76222535116445
  S   2.92323411030168      1.54671574394863      0.30371433319737
  H   2.84760793188211     -2.98196955290925     -0.46374538305428
  H   9.79927625873488      0.53453934824715     -1.03880682844223
  H   6.09355702511127      2.90955238514090      0.90016906503074
