24
Coordinates from ORCA-job 15639optt
  Br  0.59261963220066     -0.28226632963165     -2.19599288213518
  C   1.89430606051311     -0.69628649820046     -0.89108810625102
  C   2.81008467240863     -1.65542227996006     -1.11279079361304
  N   2.67065067185116     -2.63332690358036     -2.12805620004678
  C   2.21854099561098     -3.90508621201062     -1.84176283948792
  O   2.43908359899828     -4.86649602158800     -2.50430264288672
  O   1.47246659675717     -4.00321713887883     -0.67479915801247
  C   0.36857930446215     -3.21639807628398     -0.53938914745340
  C   0.18783105362403     -2.47033510455278      0.54484131812144
  C   -0.79442223586333     -1.38218317200982      0.53651295237105
  N   -0.52052516557526     -0.17573629617070      0.84894063431144
  C   0.76534614755163      0.21363924942619      1.13403387388540
  C   1.88235718729130      0.01079670262679      0.38199047507948
  C   3.16531454510463      0.12086736846542      1.06366294821246
  C   4.18840525310975     -0.68842973649163      0.75780972064996
  C   4.03316934854624     -1.73262464590161     -0.26193975369356
  O   4.85361472803530     -2.60499703747768     -0.45840461479585
  H   3.39618521935404     -2.66653101394990     -2.83341831335226
  H   -0.30238498360874     -3.20289347899659     -1.39389667724045
  H   0.96333687373701     -2.46224635331690      1.30207114846683
  H   -1.80536703297583     -1.58604440801689      0.18831530859864
  H   0.88390264966313      0.73300569636702      2.08120767836566
  H   3.23039505648613      0.81081201200337      1.89748354376462
  H   5.12550982271777     -0.66860032187032      1.29697152714167
