26
Coordinates from ORCA-job 15634optt
  Br  1.07444367266889      0.50105235437592      0.24068678766765
  C   2.92337329027368      0.31437282645479     -0.01770564550680
  C   3.48402007081439     -0.90339494536819     -0.28252911816591
  N   2.63330668628539     -2.00305199451823     -0.42525976807743
  C   2.69642746058844     -3.38626832427471     -0.33655207924290
  O   1.85144887856897     -4.05857030816263     -0.84816605847177
  O   3.67722408504558     -3.99158675517758      0.36397473504308
  C   4.58018944560425     -3.30839064632900      1.21776026948787
  C   5.88859651673068     -3.08081752782218      0.47192098490521
  C   5.61231411753481     -2.29309237384687     -0.80802358128907
  C   4.91109699533982     -0.99749426100702     -0.51826799941324
  C   5.61976737720669      0.14764411368066     -0.44274199225259
  N   5.05273123199258      1.34913775900721     -0.16634924443052
  C   3.69081306087626      1.55185440955541      0.05758021722296
  N   3.15411932214784      2.67985157788721      0.30810202041829
  C   4.79476141587116     -4.14737306987778      2.40683498674767
  N   5.02360214610710     -4.77412791710965      3.33681417887652
  H   1.69574882832707     -1.74891793378927     -0.71200740020534
  H   4.15058518287533     -2.36481749632984      1.56188967831854
  H   6.33277134200913     -4.05114609617048      0.24622676314439
  H   6.57328158915042     -2.53092467233219      1.12020866021512
  H   5.02567826261924     -2.90368859174049     -1.49730974067835
  H   6.55715887074445     -2.08437556193115     -1.30939300268624
  H   6.68757728631873      0.16297502829121     -0.61660242027127
  H   5.64026986336362      2.16735687023864     -0.13584549157555
  H   3.83269300093541      3.43679353629622      0.32875426021969
