23
Coordinates from ORCA-job 15633optt
  Br  1.01597940386676     -0.00597783860851      0.35706134253534
  C   2.88140228609707     -0.07355442800649      0.16112868916724
  C   3.63028696228920      1.05429642075267      0.06313494818058
  N   3.10557758766967      2.32070267273175      0.09352418486913
  C   3.81445899752221      3.49552799217621      0.00130339594897
  O   3.32187765002668      4.57889227107392      0.03375958840324
  O   5.15940513649119      3.34478017361719     -0.13498039564665
  C   5.74275063537315      2.12415356005102     -0.17256185309961
  C   5.06833899895086      0.96538108979306     -0.08259617296914
  N   5.73874172847317     -0.23654789854278     -0.12619953543531
  C   5.03384390014387     -1.31515036195449     -0.03633019082091
  N   5.60235812919517     -2.52551585584257     -0.06927874033548
  C   7.03341157718647     -2.68086495800143     -0.22128687794604
  C   7.40200218626964     -4.09228519502466     -0.23034821378528
  C   7.69575640145241     -5.25176294815230     -0.23629147682159
  C   3.52603715675455     -1.36425804729483      0.11517959696316
  O   2.96465820211463     -2.43630633614670      0.18563879290546
  H   2.10437685204462      2.43101646541554      0.19753106636405
  H   6.81537110017694      2.17627493169685     -0.28320463917984
  H   4.99179121727563     -3.32585869633854      0.00618894663122
  H   7.54847833064279     -2.16265969154041      0.59246833915359
  H   7.35871142034592     -2.20143919014180     -1.14903893082467
  H   7.96238413963738     -6.28184413171271     -0.24180186425744
