23
Coordinates from ORCA-job 15636optt
  Br  0.74374905125531      0.18546536868454      2.16501302017432
  C   2.13371316798125      0.52978727050012      0.95985000054596
  C   3.11543419653515      1.48827056510766      1.19329246754971
  N   2.85962213048098      2.57305696321409      2.07530821353475
  C   2.56556274622936      3.84670161079906      1.57746506249621
  O   2.85154223094446      4.84318675866529      2.16227630002713
  O   1.92496183243130      3.91122973805708      0.37264960322523
  C   1.06749634105068      2.90415642489736     -0.00699058101026
  C   0.99649296476939      2.43012130269075     -1.24117663995739
  C   0.29878985225209      1.14460503524300     -1.51587172088333
  C   0.79516215647451     -0.02052583635515     -1.08408573641684
  C   2.09789174908823      0.05857242887602     -0.36008364736937
  N   3.19836797911825      0.07305508153531     -1.09481470243990
  C   4.25309280833259      0.70334301252680     -0.59305703957955
  C   5.57170188865389      0.63619132911364     -1.31532286279556
  O   5.76848300481204     -0.05927140301895     -2.26525170100287
  N   4.20856326277796      1.52543417171463      0.44706110545675
  H   3.44934490612933      2.64928825010806      2.89360976176348
  H   0.46078947146803      2.51220200456685      0.79980865853210
  H   1.58714809351575      2.88192358763267     -2.03198633531562
  H   -0.59237879984465      1.13964359783012     -2.13456933126628
  H   0.32627467547498     -0.96832757559436     -1.31201710001787
  H   6.34319429006908      1.29189031320537     -0.87710679525082
