23
Coordinates from ORCA-job 15638optt
  Br  1.08933334559261     -0.01527840161271     -0.06859445787790
  C   2.95810048472733     -0.00611663933448      0.11245936945644
  C   3.72804501664746     -1.08148273466965     -0.17798137030573
  N   3.13167396429085     -2.24990918633353     -0.67832195016313
  C   3.49700735601605     -3.56681455844964     -0.50543561765192
  O   2.71293920270243     -4.46285744986923     -0.55696045840870
  O   4.81244383436059     -3.78892295364056     -0.27399640979439
  C   5.80921256947711     -3.01907224503310     -0.89045120240799
  C   5.58894267033119     -2.71791724674217     -2.37564538459052
  C   5.28235275432586     -3.92912192714012     -3.12489035697428
  C   5.02775229884715     -4.94156211263192     -3.70794685712943
  O   6.07859612337274     -1.84003400003102     -0.17041173714470
  C   5.15472137853284     -0.87671797784192      0.00521126959854
  C   5.62953654214839      0.31711353455928      0.43144567633130
  C   4.77543783475812      1.42891432309113      0.72609608061086
  O   5.07290938777510      2.51699426966877      1.10911404526423
  O   3.40786770634693      1.16870805804027      0.52373448419053
  H   2.14075382306304     -2.17312668681097     -0.86372920802190
  H   6.71283637389360     -3.61018310129669     -0.77114400129508
  H   6.51384067002982     -2.26870772901022     -2.74229138487702
  H   4.79556642978827     -1.98148808899369     -2.51002057042806
  H   4.79410071428092     -5.84123418143539     -4.22601512203065
  H   6.69002951869154      0.45481703551760      0.57277516364950
