26
Coordinates from ORCA-job 15648optt
  Br  0.99341134471468     -0.05906097599957     -0.19827507559104
  C   2.88493363521343      0.02628395907345     -0.00036955663405
  C   3.61944520323867     -1.15840128989781     -0.07316191424733
  N   3.05986450074414     -2.40873824423581     -0.29046785668947
  C   3.70745400284463     -3.59051433707749      0.00193291950704
  O   3.16002272412294     -4.65224637152517      0.01345517084975
  O   5.01584529178828     -3.47466161850595      0.31257123061207
  C   5.77340163436381     -2.33325468480812     -0.09069056586495
  C   6.23889335748759     -2.53767636006753     -1.52881327781756
  O   7.18730323706131     -1.53865110593317     -1.79378564267817
  C   7.70467946627968     -1.62620968733394     -3.10426869820784
  C   8.74025842533833     -0.61598205713773     -3.29290487410267
  C   9.59815143775567      0.19983959119174     -3.46319387777335
  C   4.99584884759862     -1.06160942763570      0.06562342650812
  C   5.57101503733808      0.17990989983574      0.27036573647851
  C   4.74298523091720      1.28963896291022      0.32097509199677
  N   3.42034158269382      1.20350252389872      0.18442120717435
  H   2.06012975956708     -2.48635821352868     -0.41144344747341
  H   6.65150898473247     -2.32537547332135      0.55444984816587
  H   5.38472111780796     -2.46800218269294     -2.21715222814564
  H   6.67695626988549     -3.53874819045578     -1.61809362136879
  H   6.90416219916012     -1.47637540836778     -3.83888456373761
  H   8.13225322568962     -2.62200795448989     -3.27425179892638
  H   10.36034860906028      0.92682166261902     -3.61405889333954
  H   6.64391492771353      0.27869825426193      0.36450969688461
  H   5.14614994688242      2.28317872922362      0.47051156442074
