24
Coordinates from ORCA-job 15646optt
  Br  1.07783130144553      0.02380603922939     -0.35604619057197
  C   2.95303491318567      0.10216544358296     -0.22265533172179
  C   3.69828233537102     -1.00570092692464     -0.41279688571334
  N   3.10921888648742     -2.22020711987576     -0.84250896960228
  C   2.59928409698475     -3.18792309022945     -0.00594649190867
  O   1.73697682500075     -3.94795679995870     -0.32909797239393
  O   3.14522512552822     -3.23961858670293      1.23262181489538
  C   4.53961282092455     -3.06152130396071      1.47137096665032
  C   5.45872939152302     -3.27833903396157      0.27900111623337
  O   5.85134231007097     -2.09320662299774     -0.41810626253326
  C   5.15039315717126     -0.94716885584528     -0.28734214494211
  C   5.85578164182555      0.18602283975975     -0.10185846037179
  C   5.30408476149343      1.52105732949202     -0.00998305632435
  N   5.92184878748206      2.62522418770031      0.06098182623020
  S   3.53149525888488      1.69210646929311      0.10133668673360
  C   4.85691924912776     -4.05886051697825      2.58774811383744
  O   5.96300237108600     -4.43442055469913      2.83420036211945
  H   2.59785768314814     -2.18281153662513     -1.71435784360663
  H   4.71038698425939     -2.06379649424264      1.89549094107520
  H   5.01076436701527     -3.98435746375236     -0.42218100700569
  H   6.38651937071068     -3.70007238830552      0.66213821475750
  H   6.93367974458000      0.09916776688091     -0.03607557179311
  H   6.93091210572009      2.48713914020689      0.03330472324025
  H   3.97081651097352     -4.38672792108551      3.15776142271618
