21
Coordinates from ORCA-job 15658optt
  Br  5.74550385300505     -0.07880545101894     -3.90401495401365
  C   5.09373524453645      0.69148402020863     -2.31985067708483
  C   4.88194175405099      2.01448051713838     -2.15322430470169
  N   5.52152942766379      3.00771996219412     -2.87526625203976
  C   6.89264087117659      3.14078773177421     -3.02901244630837
  O   7.40008603895926      4.07770770746643     -3.55040193342749
  O   7.64548193679764      2.05155231031988     -2.64987471129759
  C   7.56892419107446      1.49851666103331     -1.40229358304991
  N   7.19479338606587      2.16282040631742     -0.41097379674602
  N   7.98132485009003      0.16340894975973     -1.46769685311765
  C   7.29097280626643     -0.97566442080685     -1.05727422132355
  O   7.80759760972621     -2.05824960984985     -1.14816899627126
  C   5.90754135092368     -0.81559790780434     -0.51257444586334
  C   4.94313825989488     -0.11415792582261     -1.10858997364104
  S   3.35456190478626      0.13767111166922     -0.41003481642835
  N   3.20469098841442      1.81946329904159     -0.55121768266940
  N   3.97094875933359      2.52902400903776     -1.21628014362509
  H   5.03615835863173      3.89211111622995     -2.95108507228707
  H   7.25803290448371      1.62651760241078      0.44882771724347
  H   8.72564950595329     -0.04242353348130     -2.12317559931484
  H   5.69774599816561     -1.39036655581754      0.38118274596745
