23
Coordinates from ORCA-job 15650optt
  Br  1.52089465102979     -0.29784512623268     -1.43354117175164
  C   3.14056177359407     -0.02918803671747     -0.57026132902127
  C   3.73863308742687      1.14448309651436     -0.31098940111207
  N   3.35211916779165      2.45638250809293     -0.55523384719358
  C   2.02241778441756      2.88904472607314     -0.49354802954533
  O   1.15527311260084      2.32015587438794      0.10605903738156
  O   1.86970490019700      4.02630106450942     -1.16436638757727
  C   0.56812480335310      4.56389944599494     -1.10992356533600
  C   -0.39888621440337      3.79978855312871     -1.98417942249016
  O   -0.09043642934407      2.87045189138883     -2.66767975617105
  C   4.47046569002275      3.33927715985335     -0.23608411907787
  O   4.41994397430815      4.53470966062330     -0.29153306514175
  C   5.54811618584376      2.45496828876816      0.18635223268691
  C   5.11400693948784      1.17561125453909      0.16020407456621
  C   5.71507756958672     -0.08818636776193      0.46118248726744
  C   4.99751824652167     -1.19817710280878      0.24593563734576
  O   3.74967591571562     -1.20016769754276     -0.26232924815987
  H   0.64072574609944      5.59141627120391     -1.46904191163027
  H   0.18398611735669      4.57437942274433     -0.08662574047097
  H   -1.43767155191203      4.18086914935141     -1.95201759425345
  H   6.51649868633832      2.82822024061706      0.47355558200621
  H   6.71885599962335     -0.16553879364684      0.85072719517504
  H   5.33839384434423     -2.20385548308043      0.44033834250342
