22
Coordinates from ORCA-job 15652optt
  Br  1.07517211085468     -0.01862049467992     -0.43195043664824
  C   2.92403007569551     -0.13767536506150     -0.16247081225189
  C   3.53822564532810     -1.33735077683870      0.04659831149856
  N   2.87755043879133     -2.54101759841817      0.07203948713241
  C   3.34098894136958     -3.84582440933812     -0.06201926710730
  O   2.62216199407973     -4.76751605007930      0.16550928947132
  O   4.57301035380068     -4.08702658824106     -0.58658015831971
  C   5.77146714346127     -3.38530390484186     -0.57992979066665
  N   6.64777940398189     -3.58425586279480     -1.43982130575830
  C   5.89064485922938     -2.41141070917673      0.56253140785659
  O   7.14730383446549     -1.78557145948570      0.65243148190118
  C   7.07242477447401     -0.38969256324494      0.37511776391886
  C   5.60654556616766     -0.15560930319925      0.19844220025455
  O   5.05450551286271      1.02136379766896     -0.05254879056120
  C   3.65969751670284      1.12216546787377     -0.20634583917537
  O   3.20607609045439      2.20817200275632     -0.37987683027373
  C   4.93386771906702     -1.30030024659414      0.29599044097915
  H   1.87052700257143     -2.51209051353707      0.17697802177061
  H   6.34907467693180     -4.26637013407334     -2.13591752375966
  H   5.67798015918723     -2.94922182267715      1.49509742652634
  H   7.62968604120630     -0.14895853630663     -0.53424891533194
  H   7.49328013931688      0.17311507028936      1.21097383854443
