22
Coordinates from ORCA-job 15651optt
  Br  1.06121152892932      0.15503571831474      0.32853391304464
  C   2.94355208793817      0.06509234397851      0.16859472245089
  C   3.60812017784470     -1.15337814059056      0.31519537880778
  N   2.89198106682917     -2.32194437806240      0.60774383262264
  C   3.01763105125524     -3.52760070925281     -0.04954751535849
  O   2.13552734524612     -4.31234996656055     -0.17423680364201
  O   4.26692786414512     -3.78258729347561     -0.55587730872634
  C   5.37396159615652     -3.45772704466961      0.19237216058081
  N   5.74842927164700     -2.31319061221630      0.52967780929906
  C   5.00772121587150     -1.16878048749433      0.23709164812565
  C   5.69379954455840      0.01821053875741     -0.04171280203541
  Br  7.57014683094701     -0.04046828575253     -0.18382214160576
  C   5.02173300599247      1.22118947903716     -0.21396771062505
  C   5.74446239804192      2.51638044794608     -0.50370340637573
  C   6.26610771833287      2.57879140464038     -1.87107864566061
  N   6.66022256464917      2.63950527842425     -2.94448616838979
  C   3.63893024373651      1.22965641194293     -0.08758516464427
  H   1.93687178067845     -2.17611944783726      0.90895034280327
  H   5.96567160858047     -4.33315696816280      0.43672636782344
  H   6.58178062423734      2.64989523230079      0.18326027819741
  H   5.06152302070024      3.35456766359761     -0.36527147032125
  H   3.09368745368218      2.15697881513490     -0.20085731637086
