21
Coordinates from ORCA-job 15656optt
  Br  3.23519703356853     -1.12993054448995     -2.30651778781202
  C   3.25387913383973     -0.03388054311124     -0.80747142152771
  C   3.19619953562985      1.30577892209794     -0.81065518653557
  N   2.90972766637552      2.10511700919218     -1.96425284197363
  C   1.51057929466393      2.42614784994215     -1.85267640351468
  O   0.65322748049283      1.87909133369668     -2.45782884068622
  O   1.26186991063862      3.37914279997244     -0.88789210948483
  C   0.67372849572695      2.90359199279723      0.29690098025366
  N   -0.12358565913141      1.94815383216632      0.39157403533199
  C   1.13478456671300      3.67748409185498      1.47884719579884
  C   1.92870585927164      3.24344336613453      2.44771468736298
  O   2.52477792675804      2.00094094575324      2.57548929727473
  C   2.91460448068650      1.36022028078106      1.46807281329979
  N   3.13555071105293      1.97760768864570      0.38929571691725
  C   3.04848268211380     -0.11656857086642      1.58457854961833
  O   3.00860805205448     -0.76791778607430      2.57174276573386
  O   3.29331170873575     -0.70829053929719      0.36214823237545
  H   3.44434975755919      2.96730432532128     -1.87966227350459
  H   -0.37543937497279      1.53903811479718     -0.50887779284133
  H   0.75982107210436      4.68845566998555      1.57461491986074
  H   2.16361966611851      3.85506976070062      3.30585546405295
