23
Coordinates from ORCA-job 15669optt
  Br  1.77480660625869     -1.23941674286458      2.26979225900282
  C   2.78799356380633     -0.34130227651122      0.98021321606153
  C   2.69102755310838      0.98859572681118      0.75030250072218
  N   1.73174818546165      1.81627618637042      1.41138648386725
  C   0.39336254131974      1.77403232134702      1.11135086770537
  O   -0.18087286517081      0.84628999073101      0.63400938212199
  S   -0.49186304265340      3.42996170356980      1.36181695772811
  C   0.29197955789697      3.83138294409739     -0.19404318975111
  N   1.48397828821106      4.26720438445924     -0.18024734780299
  C   2.32136118199167      3.50538343726281     -1.01766370403535
  C   3.37736754249599      3.02295490737897     -0.35295290681682
  C   3.58025808680727      1.55889815901502     -0.26552401207298
  C   4.42487716132868      0.77479047942022     -0.96256277063335
  Br  5.55738773107532      1.50540536448860     -2.27154292621020
  C   4.50832205776310     -0.67148008847832     -0.74016090498638
  N   5.23752791110282     -1.54391300941560     -1.30323665998020
  N   3.64236699589509     -1.11240195033009      0.26680275012639
  H   2.05064564579801      2.70528132114114      1.76762891925327
  H   -0.13311088254201      3.28357347657411     -1.04128354271588
  H   1.89743774323301      3.00262330319056     -1.88586464340501
  H   3.67441631684496      3.57624835795340      0.53360765219385
  H   5.83156763733354     -1.12962754144210     -2.01379432472447
  H   3.69541448263392     -2.10376045476900      0.45696594435194
