23
Coordinates from ORCA-job 15661optt
  Br  2.41367687185091     -0.94523336216281     -2.79176719545472
  C   3.00099905156399      0.00400308451859     -1.29375595607064
  C   3.22171955725570      1.33753784835229     -1.31574221109404
  N   2.69265604031075      2.15560033293920     -2.38052627693053
  C   1.35282375612299      2.38316044176788     -1.88859014405671
  O   0.39091608535374      1.78352438122670     -2.23244697707049
  O   1.33677846684071      3.29929328684110     -0.87148913275558
  C   0.66931756766802      2.89029660324776      0.30662348863575
  O   1.22832126339685      3.57264959111373      1.41156055577935
  C   2.12663964022230      3.09259263309280      2.29444025676627
  N   2.97155824764288      2.15206066735528      2.24578028836552
  C   3.18086733698063      1.46237318689897      1.05830602783627
  N   2.89075327584530      0.12449810769865      1.07834058772435
  C   3.06514154112917     -0.73489265508495     -0.02067551455293
  N   3.13096455059278     -1.99835299682234      0.04824443377945
  C   3.59644646215431      2.02679704099010     -0.09666518219321
  Br  4.31006229181433      3.76817499933221     -0.13426892533816
  H   3.19125528012018      3.04310216045717     -2.39695143920473
  H   0.74513806752238      1.80688756641253      0.42449185153129
  H   -0.37104468610821      3.20310745310498      0.27427832287604
  H   2.06592421430855      3.68333697290774      3.20312850826828
  H   2.67198076598482     -0.28281971757385      1.97562301247610
  H   3.11410435142687     -2.33869762661377      1.00706162068307
