21
Coordinates from ORCA-job 15664optt
  Br  1.03585645147906     -0.07376510927549      0.05514235681088
  C   2.90230591715548     -0.07898897201142      0.06356672518540
  C   3.64484143622809      1.05633483966970      0.06683177088341
  N   3.22292314104580      2.36622673053221      0.06596104101020
  C   4.21071398363654      3.32679307263565      0.06982435879016
  O   4.04077264339501      4.50882542716173      0.07041481852552
  S   5.81472859157852      2.51189056674617      0.07383152319746
  C   5.06407459678925      0.93271408632870      0.07115770376680
  N   5.70864056786927     -0.19210105382222      0.07257060306429
  C   4.97393051181207     -1.30930835536491      0.07037902588479
  N   5.39604277593932     -2.55951975998955      0.07192808955092
  C   4.28129482782617     -3.30726546589789      0.06880000651133
  O   4.28173830875325     -4.65700994069504      0.06949155370859
  C   5.48151350262071     -5.32776234141834      0.06970898979032
  N   5.54574376663656     -6.57508691937809      0.07100134200821
  C   3.12212435443106     -2.56595904754128      0.06513024218741
  N   3.56407656485412     -1.26719805074584      0.06607705647262
  H   2.25336087922998      2.64798046264030      0.06383257614654
  H   6.35379159237246     -4.68370951989317      0.06882699698503
  H   4.61669701295840     -6.99716512223118      0.07191432534429
  H   2.08482857338883     -2.84092552745002      0.06260889417583
