21
Coordinates from ORCA-job 15676optt
  Br  1.55529117911127      0.48198813771065     -0.34020160951677
  C   3.39654076040305      0.27983003520293     -0.19095510661628
  C   3.97328909065108     -0.93988144423811     -0.24396238230583
  N   3.29046359041322     -2.14515908280314     -0.38492830955667
  C   4.08730032335316     -3.12956007066033     -0.30478166863697
  S   5.79967518725331     -2.78932945834752     -0.06939747937345
  C   5.41601738470942     -1.08990415400288     -0.07211047796680
  C   6.27713848982065     -0.04792329716327      0.04615561233338
  C   7.67752171123556     -0.30683995563273      0.35564472306254
  N   8.71245466990091      0.41507056731452      0.22764509845149
  C   8.74378342570713      1.67920177721525     -0.37059784664684
  O   9.72981648821009      2.07769252478162     -0.92365224074227
  N   7.66764362305985      2.57181180634706     -0.22807100741298
  N   6.35125106343575      2.41041313173990     -0.11563618220390
  C   5.71864561782972      1.30346971543355     -0.00819890812640
  C   4.21673468347199      1.48415194856359      0.04716771167260
  N   3.64214972002918      2.59013568432894      0.27088378711821
  H   3.76869289270241     -4.16163911705811     -0.37992894465411
  H   7.85685479218537     -1.28745940987792      0.80248042345058
  H   7.91567210211669      3.50506042891903     -0.52645911195422
  H   4.33906320440011      3.31787023222698      0.43690391962470
