20
Coordinates from ORCA-job 15671optt
  Br  1.72045308159301      2.98239229869845     -0.32481673904439
  C   3.33587788009537      3.46283040079541     -1.17544602425738
  C   3.86671216059449      2.66349801229597     -2.12209633845041
  N   3.19318034487367      1.50006049648636     -2.53971609938131
  C   2.76246183255745      1.14793019516901     -3.80125329958203
  O   2.27557186663681      0.07681537792267     -4.02231186153100
  S   3.04232337137125      2.24007595607606     -5.21535882448254
  C   2.97517832154296      3.87177650733085     -4.55819738769437
  N   3.70092091870267      4.75757753424070     -5.08564182848621
  C   3.84097574410709      6.04432032456623     -4.52868235061472
  O   4.01530264610200      7.03488425216109     -5.16058475225340
  N   3.74838441649296      6.03539370698160     -3.10386257104888
  C   4.49138609679847      5.35560785248276     -2.36910168055552
  S   5.95023335035436      4.45951535455348     -2.86146296799311
  C   5.25471717857510      2.83122263878938     -2.66558889289737
  N   5.99463912045172      1.88681787657419     -3.04423483515549
  S   3.95276663549798      5.02039771789341     -0.67508383422684
  H   2.84813946115497      0.86446374141050     -1.83026844463275
  H   2.27029855242707      4.04420386605035     -3.74248181964869
  H   5.53547702007055      0.98021588952149     -2.95480944806353
