24
Coordinates from ORCA-job 15675optt
  Br  4.46557614746555      1.96996571472303      0.26976550300926
  C   4.76324005803499      0.18215713082915     -0.21498789247906
  C   5.95795684865069     -0.25376915153835     -0.64190937015734
  N   6.13359023864362     -1.59076057307631     -1.02142176593264
  C   5.67379015117081     -2.58526400707062     -0.16337371004074
  S   3.95524632576689     -2.46502595344753      0.23204375141880
  C   3.60815344777760     -0.73711346109674     -0.10305594178865
  N   2.42595827675087     -0.30144133095914     -0.12414331792717
  N   6.36097449487788     -3.55008124729362      0.29031352434034
  C   7.75945726366424     -3.50570721445924      0.14850725711619
  C   8.45883947362441     -2.44412369553362      0.57462330923728
  N   9.82825903280523     -2.26573270858469      0.38214902316341
  C   10.31338574784684     -1.14960538693295      0.02484580530235
  C   9.58119969539409      0.08874239960094     -0.43986189574500
  N   10.10187277516801      1.23279268738308     -0.57384831311881
  N   8.27180218314233     -0.19591941279812     -0.83734525835405
  C   7.24628040150098      0.46757288863297     -0.51046879701195
  H   7.10918910490277     -1.73665448020850     -1.27068371469230
  H   1.72686907749290     -1.03659024346253     -0.02869057182961
  H   8.24042956836674     -4.36048652203000     -0.31129464576529
  H   7.92568280906173     -1.66663983091739      1.11374493329113
  H   11.39904569925244     -1.05866296592015     -0.01181940039232
  H   11.08003738580438      1.22630107797577     -0.28406338681976
  H   7.27116379283393      1.42204628618456      0.01597487517592
