24
Coordinates from ORCA-job 15674optt
  Br  5.87691992345676     -1.25485759181725      3.44831553003697
  C   5.52348614565972     -0.74224161297299      1.68057512597311
  C   6.16906617845638      0.27164393544771      1.09338458275087
  N   5.83366087142032      0.70351487811827     -0.22331058583772
  C   5.99142370836413     -0.41100255526422     -1.10897988691777
  S   4.87809068221428     -1.72829148254741     -0.81973628279184
  C   4.55299480730431     -1.55907904193302      0.93133105375742
  N   3.62657191955976     -2.19321317410756      1.50167509680603
  C   7.00991210666662     -0.54771775154094     -1.96716944060507
  C   7.79350168184703     -1.83852135218308     -1.94918672094683
  N   7.89511414795424     -2.74777314733514     -2.82208546167657
  C   8.47976545260284     -1.98710899552286     -0.62413926854038
  C   8.48024754562554     -0.93713664194691      0.20429319763042
  N   8.77979673300289     -0.76914439501653      1.54382464816772
  C   8.27974450528147      0.29462043441835      2.26787600337770
  O   8.71949414602203      0.68666624859729      3.29534987469485
  O   7.19524587502581      0.96362203292324      1.67125494703642
  H   6.43383757631375      1.47849300961815     -0.48691621658880
  H   3.06232133136736     -2.74205542063646      0.85449913801192
  H   7.59157532113512      0.34054283931338     -2.19986307806626
  H   7.32844363662833     -2.53115391881128     -3.64044622867382
  H   8.86198420999627     -2.96825522766188     -0.37278040871924
  H   8.15361495150990      0.00276840816548     -0.19455688580961
  H   9.37218654258507     -1.39731947730434      2.06579126693046
