19
Coordinates from ORCA-job 15672optt
  Br  1.13115631062534      0.30546173541333     -0.72261017675810
  C   2.97128183911072      0.21374333964044     -0.38098093076170
  C   3.65404416962872      1.28246923509678      0.10398985664938
  N   2.89878940661569      2.39041474812628      0.46558853202821
  C   3.09479776176070      3.60073657959127      0.67769035380042
  O   4.25043966839482      4.36282480475885      0.60033463602434
  S   5.50330587876329      3.74973752021638     -0.16867259105841
  O   5.07523869227198      3.44242542938278     -1.48343378679236
  O   6.59397487773394      4.59857570119010      0.12102929652069
  N   5.74015792155942      2.36416772771230      0.68213774746081
  C   5.10093441210661      1.17912177406395      0.30660809236119
  C   5.80256130362543      0.02299260594832      0.22114190599862
  Br  7.66819711302220      0.03517392995302      0.55700806946957
  C   5.25048267963455     -1.29433896359259     -0.08759697360354
  N   5.79728942271390     -2.43201160388027     -0.03191749383674
  S   3.60669244064634     -1.33548898950779     -0.74908252056523
  H   2.28620298458114      4.25141374644630      0.99025977909378
  H   6.69029758509657      2.29130932608719      1.02684341032728
  H   6.76615553210855     -2.38272864664669      0.27666279364178
