19
Coordinates from ORCA-job 15682optt
  Br  0.98063723837274      0.07351112232877     -0.19182699866132
  C   2.83448688279835     -0.03337063438761     -0.02047917466252
  C   3.59439496975809      1.10149315860916      0.00439017386260
  N   3.03884649386535      2.36266336615331     -0.09073866678722
  C   3.95299331182954      3.26547343832433     -0.04224874271955
  S   5.61983475930196      2.74199953425545      0.12292860198650
  C   5.03938441559642      1.10286969778214      0.12693534666730
  C   5.80427872127768     -0.01405119312949      0.21715332726214
  S   5.13144646416294     -1.60101138974581      0.21508118387992
  C   3.36224631186408     -1.39318124761580      0.07925478626736
  O   2.70494756933359     -2.39981927314754      0.07313457329351
  C   7.27951948617263      0.10542466983139      0.32174889061747
  O   7.81509880624582      1.18950498093984      0.34514460225684
  C   8.04504049692058     -1.12835562940910      0.38721396630868
  C   8.66611038256372     -2.15086389253789      0.43603608111543
  C   3.69423352703524      4.66220158837314     -0.11364754963727
  C   3.53856069220346      5.84823369149468     -0.16597586230539
  H   9.22597991446015     -3.05649658687162      0.47792515139165
  H   3.38595955623757      6.90077459875265     -0.21602969013612
