23
Coordinates from ORCA-job 15699optt
  Br  3.95270990973681     -3.37417631575420      0.48341201670433
  C   5.00587430355199     -1.83371479999972      0.23574894111126
  C   6.34265687613203     -1.87439108257038     -0.14831862453381
  N   7.05540061362878     -0.76836813197405     -0.23245503109950
  C   6.54742313966584      0.41419579394851      0.01444076097102
  S   7.62502492275737      1.84946985196964     -0.05959655816557
  C   9.09405153215854      1.01707687049607     -0.54969985871816
  C   9.43523290835884     -0.05753952805219      0.14931174673419
  S   10.54744246403368     -1.29956823631622     -0.38091408247952
  C   9.72295874338869     -2.80934992114201     -0.19095188599310
  C   8.51510730133690     -3.42279818254256     -0.20307548847232
  C   8.64526423907749     -4.91750346226965      0.01470797014075
  O   9.67430216942554     -5.46879189067200      0.29581479523533
  C   7.09219096004406     -3.10584614382107     -0.57987649149933
  O   6.51612155980394     -3.91961344217081     -1.25976536167853
  C   5.20695728812136      0.56224370020362      0.37233954999603
  C   4.44578133455907     -0.58466126192713      0.49671109409595
  H   9.50587160862950      1.24839972218696     -1.52269198825609
  H   8.98637243175228     -0.25434119694511      1.11342204976636
  H   10.51697137847286     -3.54972002553960     -0.07679801766393
  H   7.70629914548457     -5.48000125211756     -0.08407331093946
  H   4.78145466194922      1.53772960035971      0.56690046657022
  H   3.40953050793051     -0.52273066535023      0.80140730817390
