21
Coordinates from ORCA-job 15698optt
  Br  1.77589124899764     -0.66152077024358     -1.97927791161010
  C   3.41780897713273     -0.23961851945418     -1.16573208895985
  C   3.72664791172789     -0.73510032112390      0.11492574565150
  N   4.85670615139928     -0.36334229379098      0.67822266401463
  C   5.78317910972433      0.25068926669349     -0.04128237296986
  S   7.42748615874209      0.19725844458875      0.65771226080327
  C   7.81007565453237     -1.49822510494271      0.20232488547376
  C   7.09032854430402     -2.60470437682821      0.48095140113250
  N   5.93821290832384     -2.61327703785410      1.24394664523615
  C   4.81278214887313     -3.30378607785853      0.83042400771360
  O   4.83642332294185     -4.29461702889682      0.15063185498736
  C   3.43881943860836     -2.73247647449138      1.21365583095038
  N   2.92209893959694     -1.64370863966632      0.81561466601609
  C   9.00031277350283     -1.64496032327827     -0.57405354886461
  N   9.96413740641511     -1.73895284215185     -1.19134059582931
  C   5.48269790809218      0.70972022080240     -1.31535200677446
  N   4.27387586766416      0.49369931826192     -1.83479278118294
  H   7.37285628512447     -3.55547960223411      0.04613271528501
  H   5.73283655017721     -1.74122942904366      1.71648073682419
  H   2.80220491682421     -3.43251525073673      1.75096369959323
  H   6.20761777729523      1.23714684224877     -1.92115580749054
