20
Coordinates from ORCA-job 15695optt
  Br  1.79243075871508     -1.79618417910736      0.57617518409665
  C   2.87114327980865     -0.33908552918841      0.11801755877534
  C   2.44150453822560      0.94016310300981      0.04195656882025
  N   1.18589157972623      1.44512111509044      0.30554404264759
  C   0.03202677074066      0.96071185968812      0.20277650897990
  S   -1.39719951005877      1.94445515584425      0.44004498342327
  C   -0.78633589557947      3.56254467668913      0.72401113989115
  C   0.30394159240221      4.15120567777617      0.24256951474735
  C   1.23313687921659      3.54819815681004     -0.74845454413641
  O   0.92797629483958      3.16605146564352     -1.83141286508584
  S   3.01992946775395      3.64130627589567     -0.24268450777941
  C   3.45493126905273      1.94704576652130     -0.26916071981118
  C   4.74349911284584      1.57305836192271     -0.47567743280438
  Br  6.11195075407147      2.78636538070729     -0.86759072615907
  C   5.16270715764594      0.18397966661650     -0.38212109553304
  O   6.25183113611038     -0.26766409648900     -0.53141643844209
  O   4.13130826005557     -0.70833449553800     -0.07751093294578
  H   -0.22925607297870     -0.06157424423605     -0.06732422318828
  H   -1.42211016776731      4.11009787582549      1.40879665231449
  H   0.55669279517376      5.14953800651835      0.58346133218949
