23
Coordinates from ORCA-job 15693optt
  Br  3.51926060016092      1.55698654051643     -3.69638356240573
  C   3.99868324807620      0.45321089967551     -2.28375129996835
  C   3.48911833349176      0.60036370719113     -1.03828572003020
  N   2.60777231640217      1.61103702159670     -0.78113551400284
  C   1.70601053719737      2.06125936931494     -0.03305420240015
  S   0.66387284828760      1.71978524090260      1.44482328595575
  C   0.82562681421820      0.42544338114778      2.63164388981559
  C   1.52225743006242     -0.70188739770051      2.77257787777136
  C   2.51269310055826     -1.10776058969770      1.79232643607697
  C   3.31020618574390     -0.18489756318186      1.27008253849673
  C   3.96122340844438     -0.34689496457828     -0.02480703762193
  N   4.77480168684453     -1.30580049786714     -0.23188118731217
  O   5.26474633471459     -1.45533029098927     -1.50941283311889
  C   4.96477635939670     -0.61417946328159     -2.55513868881251
  N   5.50983917880286     -0.77801160381737     -3.67746519694763
  C   1.15117451291457      3.34565885856763     -0.41401949689634
  C   0.69779112058449      4.40715355542892     -0.73353955792016
  H   0.08573822162749      0.68361163220819      3.38501959361639
  H   1.28076414075881     -1.34233549139323      3.61300587820870
  H   2.51301599592495     -2.12343506483458      1.41091639999198
  H   3.31050850462040      0.81702012013936      1.68408331294861
  H   6.16002957991424     -1.56187779812008     -3.65428928236055
  H   0.30208954125316      5.35088039877242     -1.02631563308463
