23
Coordinates from ORCA-job 15691optt
  Br  1.57005907037768      0.10136905923172      1.69452862579473
  C   3.24857249856556     -0.04672790005522      0.84333085352376
  C   3.72027612783389     -1.24827338984424      0.41130792333445
  N   2.98192408944020     -2.40742897951084      0.56971778662855
  C   3.36664811698563     -3.55007771232661      0.18614547018281
  S   4.89412944411296     -3.96978479444727     -0.60503311184600
  C   5.58501412047764     -2.41098012497957     -0.68591735676370
  C   5.02568232465187     -1.27560719161427     -0.22008000737875
  C   5.79788477004698     -0.01628805433940     -0.36177687963079
  O   6.90635189053914      0.03962387050629     -0.85629044596949
  C   5.09251025224120      1.16760837660743      0.15612276805888
  N   3.93088018357291      1.12516770987396      0.70291904668458
  C   2.45366140846883     -4.73584455491444      0.34377391245763
  C   1.53060866400027     -5.03936808478008     -0.85439353903843
  C   2.24047542625757     -6.40030961275614     -0.85919547312083
  O   3.14434553054866     -5.97409620749079      0.18140277332330
  H   6.56817074995034     -2.35493779963367     -1.14240036127701
  H   5.59590221144195      2.12532748347676      0.06609143482096
  H   1.94800457767520     -4.65540830978221      1.30746091129775
  H   1.72447565743314     -4.42163994932590     -1.72804721737352
  H   0.46856615913156     -5.04267873400100     -0.63074060172625
  H   2.77926521014173     -6.66737683879960     -1.76803784587165
  H   1.63159151610505     -7.24226826109485     -0.52888866611097
