21
Coordinates from ORCA-job 15692optt
  Br  1.09251311782096     -0.22752644806307     -0.23296003215687
  C   2.95892126644852     -0.19798922307755     -0.14763517885814
  C   3.70845310829819     -1.32613470523910     -0.13528269852561
  N   3.08521980052369     -2.55172752097143     -0.17596265839505
  C   3.70031430750249     -3.65664732247835     -0.16604181938164
  S   5.46179007703208     -3.94729480902748     -0.08545179945105
  C   5.96954302667704     -2.30031785865397     -0.07017467758708
  C   5.16682286684535     -1.22346686986723     -0.08645773164380
  C   5.80215549637958      0.11027917454231     -0.05227660752801
  O   6.99295197144498      0.29426924894631     -0.02214816905188
  C   4.87553044940019      1.31760029817881     -0.05028732866432
  N   5.28604867704041      2.50894827806421     -0.00296930945056
  N   3.51629955281992      1.04980888425742     -0.10377697529195
  C   2.90516698636329     -4.91558779510523     -0.14898376020560
  O   3.39820681048939     -5.97920101149654      0.11973425585554
  C   1.42109368887740     -4.86904755436596     -0.52435272776896
  O   1.01525039329771     -4.26290218376785     -1.46744533123828
  H   7.04322849351716     -2.15247370510674     -0.03551050279274
  H   6.30570029146725      2.50840607974150      0.02818175237750
  H   2.90982723156628      1.85782803332040     -0.10501114385967
  H   0.78796238618805     -5.53482298983044      0.08881244361818
