22
Coordinates from ORCA-job 15697optt
  Br  1.88878607718441     -2.09127869569309      1.98722009721617
  C   2.92466371635696     -0.99183973084056      0.84508732703438
  C   2.33563117278066      0.25449027491248      0.43091598421324
  N   1.16992923137230      0.67292051888493      0.75856793451760
  C   0.69862378429074      1.85077175570205      0.14629912158016
  S   -0.41644100218248      2.83392083748205      1.23020060243287
  C   0.31412096604323      4.30251334275391      0.65151980959802
  C   1.42660816514130      4.15110983435626     -0.06455783831246
  N   1.79101937620468      2.79872257830338     -0.20967283806534
  C   2.95323259484904      2.31763940040979     -0.52811295794667
  N   3.21298527865494      1.01927751842146     -0.38527854242073
  C   4.58612835772299      0.59233756341682     -0.84072819126943
  O   5.16769663650701      1.38624749220286     -1.53307639384685
  C   4.91821439168070     -0.68767481631145     -0.33627807304584
  C   6.20386452461040     -1.32401285684635     -0.62046053235881
  O   7.10560464557178     -0.85230652994083     -1.26578884284166
  N   4.07940382579705     -1.37891830639320      0.45977403580214
  H   0.14902106314515      1.64035704644111     -0.77882945644795
  H   -0.09837399508682      5.25879121572510      0.93302016263660
  H   2.08189783128260      4.91428138908495     -0.45400526495138
  H   3.75736666143560      2.94766029487840     -0.89446003725010
  H   6.27901669663773     -2.32601012695008     -0.15635610627396
