22
Coordinates from ORCA-job 15700optt
  Br  1.05529818864536      0.04262155688633     -0.01054260537775
  C   2.92962289581537     -0.02810635350652     -0.01140604989375
  C   3.70105492388750      1.13792203552887     -0.01167074786389
  N   3.01046673211747      2.34407032787917     -0.01143333973848
  C   3.59258972810924      3.46469518108300     -0.01119205127980
  S   5.30088353222791      3.80090653319143     -0.01115851839942
  C   6.03188003429535      2.18349649791282     -0.01250307151091
  N   7.28464337344480      2.03962641540965     -0.01310536259235
  C   5.12015082693217      1.00039386262214     -0.01214054256236
  N   5.74706735967997     -0.16525829433702     -0.01230401702486
  C   4.98149989856828     -1.23538388645720     -0.01209365755096
  C   3.56211055558717     -1.26213207576518     -0.01166943607580
  C   3.16736247306051     -2.62893890889677     -0.01162238242004
  C   4.32883494075844     -3.35843279916019     -0.01201740509778
  N   5.41682337030332     -2.52380823635311     -0.01226866748035
  C   4.52141948440498     -4.80816862739754     -0.01225801121200
  O   5.61658412550415     -5.31049739516374     -0.01247338787035
  H   2.99195662856893      4.37113848244923     -0.01090766666879
  H   7.78325376892926      2.92833466544167     -0.01307061983901
  H   2.16392355494519     -3.02143609112611     -0.01135332409327
  H   6.37661256004828     -2.83417540652753     -0.01262183346596
  H   3.59996104416632     -5.41286748371338     -0.01218730198211
