21
Coordinates from ORCA-job 15709optt
  Br  1.16967424094889      0.01781422884409      0.61819324888702
  C   2.96314339876168      0.06608448117023      0.10163969823762
  C   3.67158617186602      1.20947330180353      0.14317710310061
  N   3.03536756822824      2.38813565064077      0.48739732954011
  C   3.45833795033923      3.49818892277865      0.06638263526930
  S   4.86272520995387      3.72805486330154     -0.95759646372868
  C   5.80174553382069      2.28033567713283     -0.49115198780107
  N   7.06057856708723      2.28187646020684     -0.59711811793527
  N   5.08815485188710      1.17807158245905     -0.04084654021760
  C   5.77802021817688     -0.02447382214112      0.35130127728313
  N   6.95302052314717     -0.13039697665533      0.77979685886484
  C   4.98458419270715     -1.24007769276087      0.10412241441334
  C   5.47653153110793     -2.47447227958106     -0.03382798021998
  S   4.26596035107181     -3.59518584494147     -0.54600028849407
  C   3.02478589150237     -2.31631628649324     -0.62552690315819
  O   1.89852727943232     -2.46222240913273     -0.99928725838751
  N   3.61896013038443     -1.13582813058071     -0.16733526956033
  H   2.92987170556447      4.41125887315773      0.32313958049691
  H   7.41682563699519      3.16728822163993     -0.94135316599807
  H   7.44375254616024      0.75817046240003      0.80012873349034
  H   6.51184650085705     -2.74177928324871      0.09576509591756
