20
Coordinates from ORCA-job 15705optt
  Br  2.70290639036711      1.82987394878524      3.06505440922944
  C   3.65253010433004      0.66118012180475      1.93957428450244
  C   3.40690846128425      0.59830370016576      0.60513383389735
  N   2.75852591754097      1.64830418797679     -0.05385171669756
  C   1.54196062942264      1.96548016549389     -0.05183708837296
  S   0.10376904908242      0.92002901994640      0.30668889446294
  C   0.78276957809362     -0.18097945842113     -0.93980291664959
  N   1.62502083711436     -1.03195708908847     -0.58602278237982
  C   2.58470576266833     -1.44302217355669     -1.56465988261863
  N   2.37599613615056     -2.03123126648322     -2.65776802855607
  N   3.87358008490336     -1.20696599481435     -1.09595754060829
  C   4.14505686708362     -0.46423232007967     -0.11189516431687
  O   5.37163351104001     -0.73467771013486      0.45998812419698
  C   5.51849679965937     -0.57222122446283      1.77672491311402
  N   4.68440395171922     -0.00663626303091      2.55048228876366
  C   1.17567847995007      3.28156837782759     -0.52887164659279
  N   0.82642656423371      4.31521385783102     -0.87967302995130
  H   0.59526728955704      0.12077132197548     -1.97437349341558
  H   1.38107037490684     -2.18845724943353     -2.80538545463754
  H   6.45529321089240     -0.97734395230127      2.13645199663018
