21
Coordinates from ORCA-job 15702optt
  Br  1.24403737975084     -0.64185619398400     -2.13138000753629
  C   2.28771173127600      0.20735046641641     -0.80976150951969
  C   3.14756578542651      1.18490292398690     -1.11270942702113
  N   3.17151009657976      1.82742211793441     -2.36252049624953
  C   2.67912505837894      2.98324834073499     -2.43990175185730
  S   1.87484653183057      3.90475779939618     -1.08763376128584
  C   0.62278027386456      2.70470971584966     -0.64969993267361
  N   0.17279547021608      2.41108091791602      0.47710287967441
  C   0.43977279203377      2.53248773551432      1.80815380213955
  C   -0.56775037194296      3.29356542066744      2.63473804318455
  O   -1.46463022092490      3.91390501544426      2.15002364129905
  N   1.37274358424520      1.92218948577236      2.44729289972936
  C   2.30625405326588      1.34132890842043      1.57673459761222
  S   1.81364788264788     -0.18480244322731      0.82127377516293
  C   3.42409970491891      1.98238978795167      1.22666999634026
  C   4.06765396513605      1.77898887207278     -0.07347084116290
  O   5.13520795373229      2.24287792438156     -0.38530104015170
  H   2.74399808675747      3.53973689749025     -3.36969160144797
  H   0.18709154859341      2.21494698203400     -1.52159223156631
  H   -0.37709614997334      3.22722334988499      3.71791388677311
  H   3.70163484418707      2.89154597534268      1.74675907855682
