22
Coordinates from ORCA-job 15704optt
  Br  1.41242614583129      0.75920101641549      0.51399628592827
  C   3.26511612972583      0.79310392989767      0.25651816427044
  C   4.00339082525255      1.90978741567176      0.27817947025656
  N   3.58379647927934      3.17953617110268      0.64717099239021
  C   2.85308747065735      3.95719004195239     -0.00211352629931
  S   2.86383391616280      5.66790204186211      0.45510265994623
  C   4.54929994186978      5.77945956257171      1.09415992758454
  N   5.59775997975077      5.19235675033798      0.72974928749278
  C   5.72028185452341      4.31724228056210     -0.37183981257409
  N   5.61435228421522      4.71160836919739     -1.56841852380287
  C   6.21395285978131      2.93260562800501     -0.09761800145206
  C   5.45689757070405      1.83797406115496      0.07998263961636
  C   5.97287832958618      0.48011574119399      0.09581287146221
  C   5.14169258379228     -0.55941944221079      0.09843474670056
  O   3.78282597290178     -0.44512341808326      0.11574298388542
  C   4.63814207995230      6.77559595288247      2.14380424257212
  N   4.66787783269012      7.58520124599056      2.95408128902703
  H   2.25833888389046      3.71120187417206     -0.88352853190860
  H   5.33647878065780      5.69329241474695     -1.61828728191410
  H   7.28670701131562      2.81619095043044     -0.20042060044033
  H   7.03848832866879      0.30090801342303      0.07616244525647
  H   5.44037473879089     -1.59593060127679      0.07932827200217
