23
Coordinates from ORCA-job 15710optt
  Br  0.92587058491345      0.14893681244443      0.37271208132606
  C   2.76869849424253     -0.13824266684721      0.16410209661768
  C   3.24700295530882     -1.38077642076950      0.01434324596392
  N   2.59480472930154     -2.59713859369145      0.09595550591308
  C   2.47876983405401     -3.29282760779228     -0.94661373223461
  S   3.09678514286050     -4.92379830381871     -0.74664973450415
  C   4.65670195232751     -4.32695963338250     -0.05550025972650
  N   5.48471136743955     -5.14659156940324      0.42910511128384
  N   5.13294042199741     -3.00779368913920     -0.25219260619726
  C   4.69818238767091     -1.67592313513576     -0.12897782221496
  C   5.59923229615348     -0.66992754927863     -0.14353790922289
  C   5.15281121708137      0.68880962178782     -0.00943513020541
  C   5.83334725942821      1.84587910820509      0.00460383350016
  C   4.83603207028701      2.94933347198761      0.17557269397195
  O   5.06051966710578      4.12841502191388      0.23290493554970
  C   3.47943294474169      2.29499150325091      0.26192820369877
  C   3.68005426499073      0.97841675149963      0.15496940879127
  H   2.36025000203192     -2.89763824360478     -1.95841943126837
  H   5.13874786357001     -6.10102092446964      0.45256827600727
  H   6.13805722245552     -3.06646531708142     -0.14000417313681
  H   6.65740709250506     -0.87484270138793     -0.24918331621747
  H   6.89550084102886      2.00550831499446     -0.08786735122225
  H   2.55213938850408      2.83065574971843      0.38461607352700
