24
Coordinates from ORCA-job 15711optt
  Br  0.97000006882109      0.36548394246863      2.26114775802953
  C   2.15395444953071      0.63487393836861      0.83330763909792
  C   3.08999551017240      1.60208094897467      0.84244546596875
  N   3.10606445153748      2.65679819165266      1.74059058081026
  C   2.53880033276475      3.72788636962953      1.40979538519853
  S   1.68336962037481      4.05796326321730     -0.16341502791164
  C   0.29886957202323      2.89988126504613      0.01418390065444
  N   -0.47157195738412      3.03810940664355      0.99364388369156
  N   0.25655187817730      1.93876829140556     -1.01177998810000
  C   -0.32442290429613      0.66317478772092     -0.77786997438686
  N   -1.54879575828253      0.43560488581414     -0.56798719825467
  N   0.60550392368026     -0.37383826077936     -0.79647741611791
  C   1.93519351370922     -0.06345420359576     -0.42491087960953
  N   2.83973942622245     -0.12683308647677     -1.33026187608597
  N   4.02368921549186      0.45276697274240     -1.02892412977358
  C   4.14627433042058      1.55860799408563     -0.18621254793795
  N   5.07059631306505      2.42740369134378     -0.21097102334718
  H   2.57274626116436      4.58150282305931      2.07896558662524
  H   -1.18296124193132      2.30714759346610      1.03656827394058
  H   1.10038398719613      1.91236911243949     -1.56802909264224
  H   -2.10823609243519      1.26613612388285     -0.73739507112737
  H   0.21312806168060     -1.27499796012643     -0.56109227895287
  H   4.68009291937750      0.39956313383685     -1.79346828518716
  H   5.73703411891947      2.27200077518021     -0.96485368458189
