21
Coordinates from ORCA-job 15722optt
  Br  1.32834096533831     -0.06665227476818     -0.04655199749784
  C   3.21043825491534      0.05246633480556     -0.04741603477670
  C   3.81793113708757      1.27616708249609     -0.04761413688319
  N   3.06936801543179      2.43912936978228     -0.04735924125078
  C   3.61768481001022      3.58374536750738     -0.04746520418885
  S   5.33111328885346      3.90798586585028     -0.04806648750940
  N   5.99945093510621      2.40821464222630     -0.04822004358203
  C   5.29053871131521      1.33100163337886     -0.04804305015636
  C   5.96349421674342      0.05094918327223     -0.04824287495509
  C   7.24569072111771     -0.35892287036510     -0.04854454406128
  C   7.14492726347723     -1.83189466316244     -0.04870696411704
  N   8.20335620565825     -2.69649264944836     -0.04909826531818
  C   9.54073500710934     -2.37468393728825     -0.04927699326054
  O   10.40781673248269     -3.20226638835382     -0.04966902757717
  N   5.92791907007476     -2.28958385484773     -0.04846918465755
  C   5.13144165042411     -1.16161342411241     -0.04812093273801
  N   3.84682190928790     -1.15762537749534     -0.04771778457389
  H   2.99703943170089      4.47719953808461     -0.04744901812624
  H   8.13664074221751      0.24751802867487     -0.04867142197776
  H   7.97259658157695     -3.68344160705842     -0.04927234708942
  H   9.73765435007107     -1.29419999917841     -0.04902444570267
