20
Coordinates from ORCA-job 15733optt
  Br  5.48679784906238      0.70626936935924      0.53760564870242
  C   4.42914923970917     -0.83631754649410      0.70323083149905
  C   3.07818458104730     -0.76499532902593      0.58031489990056
  N   2.10698568897989      0.23245249061757      0.78519441023074
  N   1.07592510206786     -0.29963384708092      1.54153844306228
  C   1.14375278767077     -1.59771780211698      1.47410083974339
  C   0.90814081404453     -2.65991141233198      2.51780672119275
  C   -0.11697244029678     -2.68735873075482      3.48012564247505
  C   -0.99455380173307     -2.71126849637881      4.29862305349036
  C   2.05118431837999     -3.44143870332017      2.41806451681963
  O   2.90108314920381     -4.07964681547493      3.27798136706338
  N   4.23153293460420     -3.70314011272658      2.90535024211783
  C   4.18093210706256     -3.11525357643169      1.75068845422586
  C   2.84064270487822     -3.04236523249998      1.31592121798779
  C   2.32299474465683     -1.95767495821082      0.73173397149554
  C   5.13315254488894     -2.12137103480914      1.13281256557694
  N   6.37436518607772     -2.34145209076391      1.09173494466818
  H   2.34145059113927      1.18569768477885      1.01536115469275
  H   -1.77043533136094     -2.73691749561030      5.02596467683850
  H   6.88468722991732     -1.55695636072458      0.68284639821697
