21
Coordinates from ORCA-job 15742optt
  Br  1.56448920070781      0.24509595220869      0.02193826019797
  C   3.33757345115163     -0.28880581075002     -0.21988582434381
  C   3.79270482284937     -1.41072871218510      0.37446505968407
  N   3.21553430009442     -2.32266252500581      1.19119024110477
  N   4.07646368422774     -3.29638699196518      1.58458625559210
  C   5.19588736022698     -3.03181660953588      1.01387104854976
  N   5.09114844304259     -1.87670696189067      0.23283654425714
  C   5.99157009435323     -1.21698219142487     -0.59169489123637
  O   5.56531079607487     -0.02998900267680     -1.06894633044388
  C   4.25596720968850      0.48378995852013     -1.01205430203893
  N   3.99051169585671      1.55032443289798     -1.61550308466851
  N   7.14591854888824     -1.56462365475831     -0.95083529344022
  N   7.78883329030378     -2.71746666089156     -0.61811952188906
  C   7.64596929224208     -3.70643634559084      0.30800504133854
  O   8.52337972016998     -4.53148372631284      0.43457027918385
  C   6.41346173286239     -3.83877254452763      1.19670471907385
  N   6.41726200135737     -4.70785464124286      2.10667892916790
  H   2.26662972356973     -2.30477604238478      1.52507004945406
  H   4.80172140839997      1.91754448200670     -2.10624373976142
  H   8.67765979267953     -2.78255577254173     -1.09464830156481
  H   7.31400343125302     -5.20470663194858      2.07501486178301
