23
Coordinates from ORCA-job 15741optt
  Br  1.75700867304174      0.45214389135193      0.09195948150203
  C   3.16409591602067     -0.69504464890466      0.60108010466101
  C   3.76406157002282     -1.47050453209835     -0.34912659035548
  N   3.54693567721666     -1.50879292296374     -1.67929435830719
  N   4.43293203054627     -2.27796922878075     -2.31120437986953
  C   5.20109044910270     -2.79139808981470     -1.41629191217576
  N   4.80431434737646     -2.35590026461966     -0.09188420301200
  C   5.12890738277474     -2.58699382561560      1.32162968629237
  C   4.54091066245904     -1.56064180262388      2.16996813182114
  N   3.61642887906592     -0.71143830281454      1.84856534894003
  N   5.77585834834648     -3.48895702842366      1.97666051120039
  C   6.37002880491906     -4.68284148408600      1.59526162360904
  N   7.01983456967622     -5.37687548450560      2.42980318179139
  C   6.12839522941500     -4.85605945910872      0.15531091356879
  C   6.98314532449081     -4.32376525291037     -0.70793800317770
  C   6.40607590428049     -3.58134412293924     -1.83329445571512
  N   6.83356002464388     -3.42518918311550     -3.01218242609196
  H   2.87704693332221     -0.95146031809779     -2.18467724768528
  H   4.88657343293354     -1.58952702847421      3.19399381119387
  H   7.35980764884353     -6.22528763235099      1.98105341459951
  H   5.08562772867704     -4.97764688532748     -0.12600543230504
  H   8.02118028679048     -4.14789629084907     -0.44631704556993
  H   7.65818017603419     -4.00661010292738     -3.16507015491454
