22
Coordinates from ORCA-job 15747optt
  Br  1.03107183752508      0.17090017397440      0.12757973861055
  C   2.90091551688005      0.06658435407187      0.13015207580457
  C   3.65877605199765      1.18500587570241     -0.02149700885263
  N   3.11154819716883      2.41815777750519     -0.18564290740562
  N   3.76187568762457      3.61332868834675     -0.16758176215774
  C   5.02169998229953      3.52710372196800     -0.03751645690760
  N   5.91337937535719      4.55877004954396      0.05566140129546
  C   7.20206233935246      4.06355261778586      0.28357889924980
  O   8.18163729394395      4.73437806026652      0.45349400191453
  C   7.08159933277076      2.58254958884848      0.27238945366349
  C   5.78856863913593      2.27708994939559      0.07221677551984
  N   5.05785066334482      1.10791202313176     -0.02425832313924
  C   5.70562660275729     -0.15972981099589     -0.11265088191197
  N   6.90029209490540     -0.35989112212349     -0.46184214770692
  N   4.90053169630462     -1.21110512376382      0.24958161921029
  C   3.50782820511959     -1.23055260601779      0.32823834898120
  O   2.92036264063051     -2.26281930705987      0.53715964161993
  H   2.10588182005399      2.48254749615592     -0.16780468134969
  H   5.67179223502649      5.53581167571930      0.07544816247669
  H   7.93772311402457      1.95490913291243      0.44516644906348
  H   7.38695972553599      0.47405568520932     -0.75907069333797
  H   5.35101694824070     -2.11655890057692      0.23219829535956
