24
Coordinates from ORCA-job 15743optt
  Br  1.60877353370615      1.73689635415371      1.66625167506365
  C   2.80881993938530      0.65823322248974      0.67501280150433
  C   2.78059638729640     -0.69487845059496      0.76419821992125
  N   1.89558732201888     -1.29480917841689      1.65824490880883
  N   1.39772467591097     -2.51848963756925      1.73201522682467
  C   1.70436654230265     -3.51285056706824      1.00952100227938
  N   2.62720502054270     -3.63789612422192     -0.05071739739449
  C   2.51599302518473     -4.92936464399933     -0.56637208839637
  C   1.60241084161716     -5.67214537752870      0.07131380698934
  C   1.01627882553891     -4.84802498563332      1.14267912207446
  O   0.17742083332779     -5.13605990269769      1.95333122247795
  C   3.54617367733517     -2.73118332660935     -0.47347738000359
  C   3.70931124582262     -1.44726946206654     -0.08016793921622
  C   4.85634230120378     -0.71867419872861     -0.69237369202575
  N   5.95693285603486     -1.23956108591391     -1.07991240361626
  C   4.70301888342835      0.72739874110450     -0.83609074308715
  C   3.74049152021897      1.37199524168808     -0.16835263327757
  H   1.40747104106888     -0.66178708584824      2.27189372420616
  H   3.15302510903244     -5.19772650897011     -1.39691195322876
  H   1.33924087339541     -6.69388589549360     -0.14076808106581
  H   4.20343232062707     -3.11960965369161     -1.24299831083385
  H   6.02721373092033     -2.22348533260157     -0.82378825384603
  H   5.44635873480034      1.24541207460310     -1.42562062617478
  H   3.65181075928009      2.44876578361473     -0.21491020798339
