21
Coordinates from ORCA-job 15751optt
  Br  0.99227141098159      0.25204625240491      0.10788116150718
  C   2.85207083746839      0.08551232324149      0.09747158497029
  C   3.48757421636831     -1.09155895175261      0.09420952652377
  N   4.89456090591808     -1.10179810012059      0.08870081979908
  N   5.40655746249184     -2.38688047721595      0.08724175778325
  C   4.38941177889562     -3.16816079353053      0.09106611906500
  S   4.55246562712630     -4.90186490959318      0.09126732404667
  C   2.85821152208895     -5.44098002105076      0.09518874705244
  N   2.54138597281183     -6.66308851417700      0.09576766882119
  N   1.83881350265917     -4.50239983780469      0.09774362735856
  C   1.92935103541094     -3.14007955695845      0.09797240708531
  C   3.10777173800884     -2.49000308523786      0.09520703740507
  C   5.72398056663665      0.00281281527188      0.08678122515251
  O   6.91860649672503     -0.04378051624517      0.08347979532632
  C   4.96497237929674      1.33696602590823      0.08892125041181
  O   5.53932768622886      2.39069283445383      0.08602027871031
  N   3.58593022356347      1.25671608372852      0.09418611819932
  H   3.33928996220729     -7.29063545702091      0.09367544645889
  H   0.92453920123402     -4.93172498651902      0.09933441881888
  H   0.98269765808740     -2.62039248588679      0.10033234491950
  H   3.10420981579066      2.14560135810468      0.09555134058465
