24
Coordinates from ORCA-job 15755optt
  Br  1.73015826293992      0.14498665287953     -2.48165195979471
  C   3.09474177477836      0.12518609164205     -1.20070545134269
  C   3.47429865039934      1.24004463800741     -0.54327270790669
  N   4.63551586811263      1.22229875176257      0.17890636268808
  N   5.57638114762815      0.26576588683202     -0.01792222937651
  C   5.14793368349031     -0.85489104634343     -0.47083496900874
  C   3.71050635432347     -1.09333584479126     -0.67912186258357
  C   3.07949102630405     -2.19632802548298     -0.23438957763686
  C   1.61318502828107     -2.34100182263219      0.00695389029866
  O   1.07743956159748     -3.42430943544202     -0.01491542471190
  C   0.84127402358337     -1.08586206719097      0.29398872988189
  C   1.40388798445224     -0.01437078944746      0.85172019873763
  C   0.87543768344257      1.34742886617016      0.69442518980036
  C   1.50455238430808      2.37163912843029      0.09501673937292
  O   2.79040455333422      2.40231332371629     -0.44998255464840
  C   0.87802549162305      3.64350548857669     -0.07736934298178
  C   0.36133945502540      4.71532518228505     -0.21480476113964
  H   4.97348258149100      2.09234907914470      0.55952199889627
  H   5.88536709138761     -1.63480415449516     -0.61761403686276
  H   3.67016909646889     -3.05166656974816      0.07604755728579
  H   -0.14939825093680     -1.04062448318839     -0.14559960562544
  H   2.38793415270112     -0.12183395051611      1.29412495429954
  H   -0.15083905064968      1.55461263167189      0.97143773104390
  H   -0.09928855408590      5.66657246815946     -0.33895886868536
