23
Coordinates from ORCA-job 15756optt
  Br  1.86991147830073      1.46614280866286     -2.74418891884000
  C   2.64251436531127      0.75033958867272     -1.19664322547901
  C   3.33382110250534      1.57215714398221     -0.30476736232297
  N   4.06523841128923      0.97108103799116      0.64907477562923
  N   4.11830733676067     -0.36884550676770      0.80824539766155
  C   3.14569348570510     -1.02800772973838      0.26449396245437
  C   2.10470154427018     -0.35328127614459     -0.49622577224092
  C   0.70115498546578     -0.38137869405645     -0.26929135599295
  C   -0.01140764298962     -1.51159975796685      0.28617475231115
  O   -1.15286250252532     -1.45128463752648      0.68595714693400
  N   0.22048352953212      0.89612661634492     -0.26950180453882
  C   -0.77646483181392      1.53128791571445      0.18600779423249
  C   -0.65292529619964      3.04145494446145      0.22353401558837
  O   -1.59401407123211      3.77972507055326      0.23387532107552
  N   0.67705880298006      3.60080827950245      0.19263662788511
  C   1.76387615257431      2.81425893979720      0.36205206466271
  N   2.91288709848557      2.90387552175519     -0.23863266955577
  H   4.58910383745609      1.51844495405227      1.31561862463386
  H   3.12388256005096     -2.09132051154490      0.47037609375433
  H   0.56054084026423     -2.45873511726213      0.34199829200777
  H   -1.71046085888669      1.11907713856010      0.56346403311164
  H   0.76469343357418      4.44061868684843     -0.36751504823164
  H   1.57526623912147      2.01405458410880      1.07225725525999
