25
Coordinates from ORCA-job 15753optt
  Br  1.44734959494374      1.15389610851421     -2.54687132263956
  C   2.26706097039275      0.76599456333605     -0.90173337389738
  C   3.14119595829022      1.62831042169324     -0.31808880644540
  N   3.95777621896499      1.14776288947157      0.66037488919134
  N   4.16465472722972     -0.17195055303642      0.85363614544523
  C   3.26761403630330     -0.97465362046395      0.40445922562794
  C   2.02574104622801     -0.49001640356328     -0.20315806629891
  C   0.80423981187822     -1.02678223112455     -0.01252961366260
  C   -0.44774063976614     -0.24738893236433     -0.21385333222093
  N   -1.58054721779565     -0.68823902483797     -0.56925242602668
  C   -0.31106676114339      1.19313418133022      0.21019284328219
  N   -0.85614629029369      2.17206845698762     -0.36889878993187
  C   -0.40557129255184      3.46650946766286      0.03518438897969
  N   -1.02092684130911      4.31102727077376      0.73001222227060
  N   0.85790284411639      3.67761643622304     -0.56598682976178
  C   1.86742389304511      3.37457464267224      0.11232030111975
  N   3.13572572790556      3.05234479355840     -0.48085838379637
  H   4.65419008475989      1.76294176713787      1.05137909131511
  H   3.44585458949124     -2.03117250653061      0.56503898632967
  H   0.70973996176989     -2.01139595314300      0.43275486474565
  H   -1.52108483692253     -1.67709995355646     -0.81786232314492
  H   0.39678571415630      1.33129911257566      1.03587871738264
  H   -1.93063709027041      3.94496306424186      1.00600738023829
  H   1.85055842811259      3.16905473724945      1.18552122689190
  H   3.10390736246485      3.29520126519253     -1.46966701499362
