26
Coordinates from ORCA-job 15758optt
  Br  1.25066258334962      0.97513096283890      1.61442161091576
  C   2.79045380273474      1.32636380521452      0.59808169074029
  C   2.75691335466828      1.34578480858865     -0.76738223251254
  N   3.95657475243143      1.45920409299626     -1.43794523060694
  N   5.13651462836762      1.73442113070497     -0.85081806782635
  C   5.06387058252866      2.13153183591906      0.36335299360643
  C   3.80784957352896      2.21958595834251      1.13103180778645
  C   3.54917079761634      3.24484487031190      1.96840659547998
  N   4.24604737761777      4.47771201693046      1.77906178494913
  C   3.68180150499535      5.41183829404947      0.87803849659607
  N   3.80260114476450      6.67170949166011      0.94065385600644
  C   2.88931780927137      4.78495191451810     -0.21985274211642
  C   1.73874378848298      5.22237522462138     -0.73169129333916
  C   0.91670352536533      4.32216066229477     -1.64495045339519
  O   0.35473464051946      4.67886647364841     -2.64124538860416
  C   0.99239479944829      2.93817408302627     -1.05804698420646
  C   1.67921682182441      1.93594098449356     -1.61500330951296
  H   3.98071510450354      1.43123883046156     -2.44311552859678
  H   5.99538372136185      2.40629457756659      0.84004793910450
  H   2.65488114592614      3.25155605394131      2.58170247903014
  H   4.62281899362123      4.92409254382868      2.60497553102676
  H   4.33418855458255      6.96863037651306      1.75900105850410
  H   3.27723066226521      3.84100472241021     -0.57092122512845
  H   1.31396340184712      6.18061360175444     -0.45129731121299
  H   0.89707543470900      2.95871840271443      0.01850804699365
  H   1.84217149366819      1.90925428065033     -2.68801412368127
