22
Coordinates from ORCA-job 15759optt
  Br  0.99334828508871      0.77981950533180      0.85018139131959
  C   2.76079672723832      0.96960836287561      0.26778769929060
  C   2.96387705044755      1.46731978855146     -1.09432451346568
  N   4.25326145035023      1.28630934900876     -1.55018436693424
  N   5.31024007429781      0.86628046023692     -0.87799220897742
  C   5.12490113483204      0.55256093556467      0.35738686323611
  C   3.83833928383630      0.58038771558256      1.00120008903316
  C   3.84323122432502      0.13089611026021      2.40514382972320
  S   3.02570314480940      0.77438169167448      3.62167165560459
  C   2.82632489808088      4.03040876717684      0.34539014374770
  O   3.92003432088686      3.98632408985449      0.75561457709505
  N   1.68822469665138      4.14217947466020      0.00202330843931
  C   0.73781908655686      3.65270692456592     -0.89141436331452
  C   -0.55500608988320      4.35010615512128     -0.89299037033569
  O   -1.49057472034489      4.05377298876913     -1.59235377414203
  C   0.95916585605317      2.61313525813519     -1.72746998206665
  N   2.13744279785615      1.97558127058102     -1.93019989465931
  H   4.42476715261275      1.56841199633208     -2.50615471841727
  H   5.99959826547360      0.23174229433073      0.90713283491705
  H   4.56050127663085     -0.66851481776037      2.59568293550628
  H   -0.61188807017741      5.19563326861831     -0.18302973504351
  H   0.14389215437753      2.36494841052866     -2.39910140055633
