23
Coordinates from ORCA-job 15767optt
  Br  1.38980686259565      0.52731157146195      0.04075145422202
  C   3.21040868906077      0.12920827606443      0.03879853966979
  C   3.73496669910438     -1.11068233778630     -0.14357253668762
  N   5.12959602584570     -1.27846308608583     -0.13485822540801
  N   5.97757073513678     -0.25802555938220      0.07857335636405
  C   5.50971170936981      0.91328667179488      0.26227966251569
  C   4.09553919918341      1.28196632030788      0.25581685424335
  N   3.64658401105311      2.46030529430006      0.41957162462779
  C   5.83173682388083     -2.50702622365947     -0.36560554584001
  O   7.02608701133262     -2.57563452552630     -0.35604272501706
  N   5.02572481591539     -3.57356191250661     -0.60235405011285
  C   5.53236543499728     -4.92034645448114     -0.86983692228149
  C   4.20297801110459     -5.69536600726111     -1.04419342118200
  N   3.11078350228788     -4.73258556713075     -0.84623332372110
  C   3.63945900632610     -3.61130366342901     -0.61255037197045
  C   2.89106656778135     -2.34120571532340     -0.34652487694931
  O   1.69706480219546     -2.34383982865403     -0.30411189795726
  H   6.24809806309570      1.69094560982356      0.43045653978319
  H   4.41024394567780      3.12149786342652      0.55921992394527
  H   6.13430066522284     -5.26395397752031     -0.03015844005910
  H   6.15680506061371     -4.91361134686870     -1.76158374390397
  H   4.09188670326966     -6.50028246470964     -0.31818227963476
  H   4.10421565494914     -6.13463293685444     -2.03665959464615
