28
Coordinates from ORCA-job 15762optt
  Br  0.98472609568114     -0.02564325032304      0.13732794953637
  C   2.85358066225653      0.09385024074246      0.09088566066131
  C   3.49473208654262      1.28021784884683      0.23896057808167
  N   4.86547019766978      1.36050546563953      0.11800351967782
  N   5.61491526982402      0.28995937618686     -0.17870636061751
  C   5.04284480753425     -0.84989871456769     -0.31906968426155
  C   3.60944051253818     -1.12094891576195     -0.17579491173850
  N   3.05420224178316     -2.26281737260090     -0.29702568848210
  C   5.61026373527891      2.58115713693416      0.43457110218691
  C   5.41479890872478      3.74846728390797     -0.53655805517531
  C   4.07094698830116      4.46080763666184     -0.43304764626402
  C   2.88249363432650      3.52444755560006     -0.58079559163873
  N   2.85688323304113      2.50259472101131      0.47318674929834
  C   2.07916557677819      2.68969221410716      1.59549835460369
  O   1.44954627236486      3.68916748254225      1.80761880623611
  C   5.38719746258709      2.97581106712339      1.88977249601722
  O   5.62368924529297      4.06909207566807      2.30917996664112
  H   5.70193595390610     -1.67559237985230     -0.56501046950236
  H   3.74429386154139     -2.98234692162317     -0.50635117534294
  H   6.65181220602034      2.25668685796652      0.37749789852919
  H   5.57164348217605      3.36429987031839     -1.54764000594382
  H   6.21222679038490      4.46364168697499     -0.33223631027251
  H   4.01234593530095      5.22457517900127     -1.21030142252768
  H   3.99376887163561      4.97378344710000      0.52698482256328
  H   2.90063672214709      3.00358932421945     -1.54085729461253
  H   1.94653361023758      4.07421488624934     -0.50072249430079
  H   2.11496701550519      1.83084790129268      2.28182665219814
  H   5.02293862061947      2.16283829663450      2.54980255444918
