22
Coordinates from ORCA-job 15765optt
  Br  1.59056647664691      0.21246256620870     -2.36357507457393
  C   3.01246400063189      0.13521207306509     -1.15405659614216
  C   3.45250294307716      1.23241034061028     -0.48496488433664
  N   4.63939593094044      1.16855335716932      0.18936526013462
  N   5.49259527923143      0.13628477535491      0.07844392579653
  C   4.98952520101865     -0.96855019016731     -0.34294804385821
  C   3.54618483390557     -1.11523518804683     -0.60503767467079
  N   2.91777435842399     -2.14286099571291     -0.19629952015177
  C   1.50402127623686     -2.20055389274288     -0.11589062953464
  O   0.89342618239883     -3.16058268378500     -0.50029175887186
  C   0.80835914412775     -0.99251556906934      0.43087361908401
  C   1.43313984335037      0.02407888432295      1.02659824418305
  N   0.90261655452889      1.31537231577369      1.03296551009178
  C   1.47400437650191      2.29280907075821      0.46799436094020
  N   2.66830588428890      2.36625498255140     -0.25881554016210
  C   0.83485103403516      3.59963284825959      0.55013000858449
  N   0.39232099134721      4.65441690458474      0.59816909327279
  H   4.99335204776059      1.97767988772537      0.67428067384455
  H   5.64739932818314     -1.82532274438718     -0.40845097982971
  H   -0.20080458590715     -0.86385082250850      0.05941176268541
  H   2.41804632114552     -0.10425685485794      1.46832875990031
  H   2.99195257812594      3.28456093489362     -0.52623051638592
