23
Coordinates from ORCA-job 15763optt
  Br  0.73931928176674      0.68705756129215      0.67062284254905
  C   2.59354899342734      0.53875533149243      0.42385800093052
  C   3.41322639942162      1.60471667969517      0.25710533254680
  N   4.79600388335340      1.39687864647428      0.25480701920819
  N   5.36610311050182      0.29689707819295      0.81685976368632
  C   4.60998100042634     -0.70584042402406      1.01419055806095
  C   3.20945777520722     -0.79429964688491      0.56129137555226
  N   2.77810941925493     -1.97172223275932      0.36258492118846
  C   1.48714446226605     -2.26839745241632     -0.21732328014541
  C   1.50255933043423     -3.62679456148549     -0.77913602782351
  N   1.47925709813912     -4.67665973465940     -1.23416213272296
  C   5.68241729134845      2.27703961984757     -0.38906039601442
  O   6.86265738122564      2.11151193752733     -0.42805224701681
  C   4.96210881227166      3.39633184039585     -1.09731225531236
  O   3.89184448386064      3.91048427931245     -0.32779551248028
  C   3.00306005745179      3.04399742566203      0.21785069752730
  N   1.93655634073989      3.44213249239093      0.74312006416259
  H   5.05198970201536     -1.58497358668496      1.46720540673850
  H   1.19691455954265     -1.57928756755153     -1.01379549294310
  H   0.70303467449265     -2.23139255105089      0.54277532879123
  H   4.60107273459268      3.02996934739443     -2.06412540493806
  H   5.66294851373645      4.20898622394465     -1.25972818636711
  H   1.85168469452331      4.45460929389465      0.65321962482183
