24
Coordinates from ORCA-job 15771optt
  Br  1.60937793731369      0.82411727237296     -0.74135496912712
  C   3.36853906624915      0.36782430409347     -0.26167389584242
  C   3.89654075004593     -0.89107039589211     -0.18333685334188
  N   5.24952518839251     -1.01799962104581      0.08897705572744
  N   6.04641643070191      0.01302210553997      0.37459647346482
  C   5.56921917339791      1.20135857790628      0.35690380013476
  C   4.19244600569153      1.54322133859536      0.00523385532757
  O   3.80312342939798      2.68990532196913     -0.05014885957722
  C   5.96254252149467     -2.26650027437942      0.02858204317278
  N   7.17071623961160     -2.43850759012450      0.33066198549363
  N   5.19036900435009     -3.27471637982957     -0.46855953756771
  N   3.83530056468434     -3.29587359413397     -0.47344608185362
  C   3.19635592438836     -2.19454770371574     -0.32536402549769
  N   1.83603694990177     -2.26674265268170     -0.19915539411420
  C   1.19979667114979     -3.55366384586003     -0.41763575851710
  C   -0.25113270380484     -3.40200002269783     -0.37215412028526
  C   -1.43813891014796     -3.25577650187494     -0.34907350517064
  H   6.25220987387551      2.00747491886738      0.59588634795122
  H   7.61684933319483     -1.57083536394226      0.60720336332369
  H   5.62324257845988     -4.18413583355656     -0.46307896038876
  H   1.29079725924973     -1.45809255091245     -0.44302972409873
  H   1.53374899517527     -4.25416294833483      0.35090681900443
  H   1.50277321025658     -3.98193206675315     -1.37919778164505
  H   -2.49465549303026     -3.13236649360965     -0.32374227657297
