20
Coordinates from ORCA-job 15773optt
  Br  6.29708143926719      0.45573971535094     -3.36503920062208
  C   5.94167752242461      0.31788500913635     -1.53473932613790
  C   6.48803358565737      1.12077167843323     -0.58054041179214
  N   6.07109567687207      0.98088819971683      0.73930818146584
  N   5.23105637620706      0.01346776273788      1.14779340167688
  C   4.74044484027085     -0.78683830492094      0.27815505426593
  C   5.00192764175791     -0.73910786362047     -1.16527347205976
  O   4.48153194210763     -1.50894919251950     -1.94122385477558
  C   6.44290071682210      1.83687423291831      1.83780237705855
  O   6.53342295474944      1.39728837170053      2.93900715168473
  C   6.51780695470709      3.33456245493623      1.64130991662651
  N   7.14616933487334      4.00706602445201      0.77921828923198
  C   7.81977278081417      3.33632443312199     -0.22512030418765
  N   8.88512377684516      3.87208201468167     -0.80418283894402
  N   9.24238756947986      2.95774041474441     -1.67073157160762
  N   8.50709496052751      1.88198988707510     -1.74300570665488
  C   7.56416695554663      2.08408580146157     -0.82728352953153
  H   4.05402950556808     -1.54015514081896      0.64607487699164
  H   6.00491350411872      3.85898971608823      2.44433350176914
  H   10.05236196138314      3.07729478532455     -2.25986253445802
