19
Coordinates from ORCA-job 15770optt
  Br  1.41029841038188      0.17453147219086      0.60972353643923
  C   3.18151620477015      0.05088327424328      0.03509898198235
  C   4.08369336949333      1.04615372688825      0.17457411509344
  N   5.36741477721884      0.85256282055640     -0.27814023790610
  N   5.84604800636956     -0.24259815404981     -0.83724000413193
  C   5.01564270650279     -1.21940511264530     -0.99437128522477
  C   3.60259027169772     -1.21219216908870     -0.58817452967738
  O   2.87633525231152     -2.16872414227561     -0.75097525337711
  C   6.16576454645092      1.96782986821305      0.02546843130764
  C   5.44247368637277      2.90248840827029      0.63708438431048
  O   5.87653101621953      4.11904118213121      1.03556341859330
  N   6.93091337885756      4.67085906835615      0.28627470948305
  C   7.74174674162826      3.91419127686826     -0.31342137359964
  S   7.81868790404787      2.14130166467906     -0.45999756355719
  C   4.05162952764323      2.43212514110203      0.77316315313388
  N   3.10578789003742      3.08901610612697      1.28637384077625
  H   5.40047194618764     -2.12094178561042     -1.45217264035959
  H   8.53228037938434      4.43020542756961     -0.84592548169606
  H   2.22817398442462      2.57167192647439      1.27609379841015
