28
Coordinates from ORCA-job 15778optt
  Br  0.78136118234378     -0.34681462246760      0.10833621649891
  C   2.64236356505242     -0.07362700125526      0.11383839202055
  C   3.46474131017501     -1.15282241891456      0.20436224387570
  N   3.13370218604752     -2.46896613210228      0.29256884938880
  N   4.21710246785919     -3.29100561572510      0.35571722089865
  C   5.26761383676390     -2.54262090052216      0.31267411946530
  C   4.91077751976196     -1.14024176924321      0.21649720577283
  C   5.65314656805211     -0.01318901041996      0.14607398159119
  C   7.15321295351790     -0.00038194497224      0.08766173220321
  C   7.66707647666398     -0.12837462144928     -1.35125553130096
  C   9.18730023271527     -0.08665444724894     -1.41224040849984
  C   9.69299942157022     -0.23505123176643     -2.85037912243864
  C   11.15207976415371     -0.19336592636066     -2.92096691531709
  N   12.29681779802497     -0.15644883820828     -2.94435072693301
  S   4.89591831462038      1.52658966504165      0.04228698681080
  C   3.11324342671715      1.28526324454574      0.01911822527016
  N   2.34704162299954      2.29412121709980     -0.06765738652242
  H   2.20527846405750     -2.85475980396205      0.30805259814984
  H   6.25259203519363     -2.98043011163388      0.35324258766423
  H   7.53881263343977     -0.82557058374062      0.69066320331367
  H   7.53396871392654      0.92389077647784      0.52878708574204
  H   7.24721024769319      0.68058395580910     -1.95547590746229
  H   7.29850731981941     -1.06522261906437     -1.77865979205152
  H   9.61070945403456     -0.88574648249252     -0.79952658951305
  H   9.55400377327171      0.85556208220939     -0.99912651938725
  H   9.29647986455988      0.56450230318758     -3.47938297783188
  H   9.35521546725338     -1.18095797707758     -3.27836435555873
  H   2.84172337971136      3.17973881425588     -0.12849441584919
