23
Coordinates from ORCA-job 15779optt
  Br  0.95569979433042     -0.25866221084137      0.19612221173411
  C   2.81784524522113     -0.18778266917875      0.09259621960897
  C   3.56746832588325     -1.31633510684697      0.07157576097382
  N   3.24707106625932     -2.63256636722938      0.11381370311357
  N   4.34377401190864     -3.44210390960515      0.03295535166400
  C   5.38560935627538     -2.68624262166132     -0.05159654176474
  C   5.00598361968457     -1.28802657304922     -0.03259468796800
  C   5.61334392506674     -0.08918444098696     -0.07109269859594
  C   7.07761216069278      0.19448115047998     -0.19343634175559
  C   7.59248524554962      0.85505217991187      1.00826073948317
  N   7.98451326765981      1.36532632888390      1.95461798289201
  O   4.88202515157963      1.02623286599613     -0.01056205589876
  C   3.48855975916725      1.08169512232795     -0.02036093092428
  N   2.92414158786881      2.20845772990132     -0.12869465421893
  C   3.75308141644489      3.38968037050056     -0.25279862799954
  C   4.73142926665238      3.32233244603524     -1.35579070570118
  N   5.49636226487135      3.24066773724065     -2.20522400071026
  H   2.32731882548364     -3.03598871495218      0.16194259899051
  H   6.37111915421298     -3.11795461283562     -0.12082356403002
  H   7.23682058322467      0.85675614697610     -1.04974601458931
  H   7.62577677966662     -0.73216658906989     -0.35710957882795
  H   4.31822410623191      3.58563355642473      0.66466256705732
  H   3.10773508606413      4.24769818157836     -0.43271673253301
