25
Coordinates from ORCA-job 15772optt
  Br  1.53476624262553     -2.25856862079385     -0.97364838368549
  C   3.22409111896266     -1.49899215616589     -0.70521606984172
  C   3.65886297090797     -1.15824605357280      0.53046024379138
  N   4.88419270143828     -0.58486828502438      0.68986736423861
  N   5.88234922965708     -0.80588550139234     -0.17297174859054
  C   5.57010579333124     -1.35181334301845     -1.29618120181358
  C   4.18724088212838     -1.55514898165906     -1.79384334075401
  O   3.95855673082260     -1.88710454462750     -2.93465392228386
  C   6.62904802460152     -2.29180867507649     -1.82608958280431
  O   7.61021174752950     -1.99949931463574     -2.43813698788600
  C   6.28828427739321     -3.71487904255537     -1.36507016277347
  C   5.77276818440408     -3.86806611480394      0.09537443457370
  N   4.40909698984569     -4.36780167417939      0.14391269311449
  C   3.49831443652645     -4.03936115058332      0.93804015525917
  N   3.47211689483361     -3.03363422790221      1.97977249050281
  C   3.08295267304097     -1.70190531035773      1.79566844302969
  N   2.45295102240199     -1.08284663164585      2.69909126922526
  H   5.19667033157333     -0.33887106766795      1.61762438621338
  H   7.18312817501352     -4.31131115893769     -1.53225079843712
  H   5.51187331862123     -4.08621334646531     -2.04043249204709
  H   5.93396241567024     -2.96788640030570      0.68998646931794
  H   6.36646433029890     -4.65597051148518      0.56274391327317
  H   2.56840965408331     -4.60539823530558      0.88491505959140
  H   3.01767215400669     -3.38527621220892      2.81723509180505
  H   2.29390970028193     -0.11164343962931      2.44580267698114
