21
Coordinates from ORCA-job 15783optt
  Br  0.96189650970742      0.04069332292792     -0.19513015142902
  C   2.82174508160313      0.03596652314061     -0.13878857540818
  C   3.54364239250972      1.16459363775247     -0.09353512413757
  N   4.96568712329100      1.08094428002815     -0.15039467993492
  N   5.54972790051758      2.28748560377087     -0.14544712442159
  C   4.60999342168038      3.17436094722595     -0.08671770401402
  C   3.25306231233217      2.59649910286841     -0.03513909581536
  N   2.09972692369051      3.13380358193451      0.03790721190026
  C   5.57160356862547     -0.13252757917382     -0.14282283642901
  C   4.83608412941917     -1.25983459966831     -0.12600953703341
  N   3.41870894497134     -1.20481612311968     -0.12455706283757
  C   5.51397510734202     -2.52252395070196      0.00662185629630
  N   5.06036994792600     -3.68076185980151      0.17339092724434
  O   6.89846790843838     -2.43258945136628     -0.09130425180258
  C   7.60982103950301     -1.30098955900607     -0.13026214888655
  O   8.78577586235548     -1.28256223139900     -0.17661034968593
  O   6.90950623520576     -0.11786202792043     -0.10562427341515
  H   4.85688095257328      4.22491735150315     -0.07032937300739
  H   2.17336267656226      4.14953969547644      0.05190190490036
  H   2.93483884592424     -1.92668122651215     -0.64380882409181
  H   4.04912311582163     -3.68065543795926      0.26865921200882
