22
Coordinates from ORCA-job 15791optt
  Br  0.91016912805635     -0.39362020695712     -0.19170725157480
  C   2.74733873589993     -0.22646936366811      0.07719215674674
  C   3.62112508489546     -1.25608933759562      0.03416783612577
  N   3.44368593182544     -2.58405534142663     -0.16306366052246
  N   4.62346334001578     -3.28147943106882     -0.16455803995090
  C   5.58027002051076     -2.43584479232414     -0.00222126995076
  C   5.05827012971489     -1.08644307664658      0.11671704175345
  N   5.70051349469902      0.03229919380097      0.09727203404910
  N   4.98224513294895      1.15332780406345      0.11377576999231
  C   5.68622023395300      2.36174323020794     -0.05125654506278
  C   6.50451313745549      2.78957354242695     -1.06455040897335
  C   6.92658721290424      4.05985691391737     -0.63155401696891
  N   6.40161046800393      4.38147358883118      0.54049342717866
  N   5.66003613290377      3.33328106293044      0.88616292630557
  S   3.35158166861070      1.28853825151824      0.63831628661800
  O   3.39942192877687      1.32547097103575      2.06659124900737
  O   2.77241699514458      2.38711907231905     -0.05818038213915
  H   2.57366258365606     -3.07977338115669     -0.24887434598298
  H   6.61193500894240     -2.74654628416343      0.02492390765142
  H   6.75043580208568      2.25803153602232     -1.96629846667651
  H   7.58570064501154      4.75213642433587     -1.12900346128856
  H   5.13679718398509      3.33546962359760      1.74965521366278
