23
Coordinates from ORCA-job 15795optt
  Br  0.82361872380837     -0.36148399232087      0.04263630605803
  C   2.67977657831947     -0.17226590847629      0.05944677473515
  C   3.50413871037373     -1.21869895054000     -0.02011654490065
  N   4.90924703525162     -1.10305831933745     -0.01803578260011
  N   5.48803447444458     -2.28899595629543     -0.22823639569051
  C   4.57875686396395     -3.20973001632291     -0.33048000571966
  C   3.22307749541321     -2.66880783260551     -0.19938733966374
  O   2.15011342301350     -3.22716174357677     -0.23103145619135
  C   5.63389062031641      0.08921095994007      0.04717293388550
  C   7.12742905899973     -0.05176536044125      0.01831253678848
  C   8.02015151908528      0.89337947746013      0.85600077510142
  N   8.89570438370538     -0.25253231355933      1.14246462377553
  C   7.79775742798680     -1.18332350537809      0.83369691850485
  C   4.96296832731488      1.24855801633387      0.09407582171239
  Br  5.79412040561748      2.93722157651285      0.02444986462218
  S   3.21015506195698      1.47362786073495      0.16142771807105
  H   4.84915946258319     -4.24026356458249     -0.49268704464157
  H   7.46875416865604     -0.09080542409469     -1.01786408527288
  H   7.47906126901470      1.26447040567086      1.73276812649817
  H   8.50066009639012      1.72480147030934      0.34441094976511
  H   9.25765081485841     -0.29744788175658      2.08629865326480
  H   7.18969109739064     -1.45905920247533      1.70213111045221
  H   8.08508298153549     -2.07986979519909      0.29254554144559
