24
Coordinates from ORCA-job 15799optt
  Br  0.75553347661924     -0.13746402215980     -0.26550133557029
  C   2.61293260566151     -0.05799209091551     -0.40374580525205
  C   3.39117339574187     -1.10629991399588     -0.14558328963116
  N   4.79730844965538     -1.01886211589608     -0.23320420398871
  N   5.37997231059621     -2.16266712460000      0.20365904513590
  C   4.47035213639223     -3.05114813904275      0.40939269298013
  C   3.10487534094292     -2.51134677773959      0.23741175405590
  O   2.03826368200395     -3.06179368800566      0.35027296945110
  N   5.47632968046832      0.13011491948280      0.01813718255605
  C   4.92743342766217      1.23973446584765     -0.24269836291064
  S   3.27957013218226      1.47505541342494     -0.91764561332879
  C   5.67051341052349      2.50721393477678      0.06448399153292
  C   7.12520940854816      2.33863004299105      0.49736835033253
  C   7.78464019333144      3.65051552440816      0.05038783963796
  N   6.98101677886531      4.02483465399321     -1.10140507176839
  C   5.75631624461099      3.45143115125563     -1.14236958863189
  O   4.88014495373985      3.64809881898262     -1.95183673465770
  H   4.72498863273233     -4.05733870054944      0.70188759343632
  H   5.09484082453952      3.05606385438008      0.81976177209616
  H   7.56275318149171      1.49809811039328     -0.03876163140256
  H   7.23450299225725      2.15385336863832      1.56282906402455
  H   8.82834601215222      3.51201494226740     -0.22661997591167
  H   7.73169692216332      4.41471808773560      0.83066801110487
  H   7.21628580711826      4.76853528432718     -1.73888865329051
