21
Coordinates from ORCA-job 15794optt
  Br  0.99532464146726      0.02179626221510      0.23250115091863
  C   2.83928430778293     -0.00465443652591      0.00355629257503
  C   3.55529058753678     -1.14154359207780      0.04479699100992
  N   3.26716935931596     -2.45236784383469      0.23473761861285
  N   4.38158646570243     -3.23729479020024      0.17856322996465
  C   5.40477685009009     -2.48867672863534     -0.04822812359230
  C   4.98775533093691     -1.09620457126577     -0.15237585767085
  N   5.67313557942663     -0.03997850585813     -0.37075782557290
  O   4.93944035292353      1.11891120543934     -0.40114461657092
  C   3.56838984067596      1.22728613431205     -0.22214839085067
  N   2.98498670372064      2.34975482018050     -0.25466027845700
  C   3.55192264667104      3.58826028851336     -0.44411395185751
  N   2.78998211503420      4.62693457796510     -0.46809148449835
  S   3.71460427401652      6.00286039718251     -0.70048960911446
  C   5.25970952090478      5.13823439327585     -0.77156326156935
  N   6.45428436840279      5.52417465339392     -0.93117808302703
  N   4.90492331342810      3.81271550509125     -0.60629126514305
  H   2.36982767675796     -2.86820278129516      0.41573489182054
  H   6.39821849022831     -2.89559760098603     -0.13678918104615
  H   6.52414625955335      6.53022627461077     -1.03800582454637
  H   5.60624131542378      3.09036633849930     -0.61205242138470
