12
Coordinates from ORCA-job 157optt
  N   -3.32098353535156     -0.33193733005194     -0.02366865048188
  C   -2.34441646730645      0.54847806283216      0.01587255245712
  N   -1.08967483430185     -0.00790112624889      0.04752639048534
  C   -1.29146050834497     -1.36605127290457      0.02617226366066
  C   -2.65069170312801     -1.51478509439767     -0.01678876109499
  N   -0.62118410125288     -2.54890544798225      0.03340817768462
  N   -2.85249096451248     -2.87294149990704     -0.03776027375631
  C   -1.59775518681511     -3.42932233549220     -0.00601369542855
  H   -2.48369308136976      1.61726206196983      0.02394126759391
  H   -1.45847156211934     -4.49810592505311     -0.01396550718242
  H   -3.72356145537907     -3.37255484131219     -0.07054982581670
  H   -0.21861660011851      0.49176474854789      0.07982606187920
