22
Coordinates from ORCA-job 15800optt
  Br  0.93005161925965     -0.05046227723125      0.54592670123277
  C   2.71019269895338      0.03310406269085      0.00523352340748
  C   3.49933081140389     -1.03763986962785     -0.05512413265809
  N   4.85656677695216     -0.94560821110582     -0.43573077420148
  N   5.48166483503516     -2.14152530892531     -0.29456404981517
  C   4.61124647017260     -3.04607828572306     -0.01047667931662
  C   3.25947113314353     -2.48277108475813      0.20047346922310
  O   2.22745883181174     -3.03576798022575      0.48302973159708
  N   5.61501948231977      0.15583972419319     -0.20024940789081
  C   5.04844142161574      1.28404613390679     -0.17244653759834
  S   3.30930305935382      1.61815946585854     -0.42643805919159
  C   5.83652641152399      2.51253605300965      0.10816262863558
  C   6.96470903949880      2.91546818720616     -0.74246871068884
  N   5.66521989726210      3.56958409791829     -0.89019500372031
  C   5.56506637631654      4.88276760213035     -0.34458567189323
  N   4.73168102172327      5.73973019610285     -0.71675009843825
  H   4.89212439348771     -4.08286686433946      0.08682946060087
  H   5.85255948438392      2.81937812323788      1.15025807077135
  H   7.25509976834182      2.28878586037577     -1.57393738600070
  H   7.75862998258592      3.48457946132027     -0.27204347830354
  H   6.27612541456515      5.12394589821985      0.45401984128678
  H   4.15151107028926      5.36179501576620     -1.46892343703804
