28
Coordinates from ORCA-job 15808optt
  Br  1.04840777308409     -0.30841219847031      0.11282945483538
  C   2.90908308806109     -0.23240094993199     -0.05190361206833
  C   3.66190194623232     -1.35430411670882      0.01226428777604
  N   3.35813935430604     -2.66593985324966      0.17834098734468
  N   4.47156114731463     -3.46491177881002      0.17049469005104
  C   5.50528712121454     -2.70627358992874      0.01174795449099
  C   6.91985034037261     -3.21570011916827      0.00253413407449
  C   7.01534209610637     -4.71361002771512     -0.28437432179486
  N   6.70452994010844     -5.04750327646601     -1.66503168355598
  C   7.48028557985764     -4.22054865269489     -2.58132882526374
  C   7.34441402513527     -2.73740258867337     -2.27726451742839
  O   7.68788510226504     -2.46162644935210     -0.92431107150660
  C   5.09533307880298     -1.31890565697290     -0.11299847567758
  C   5.68712631117864     -0.12977045245985     -0.31333195452130
  O   4.96347157325261      0.98852202479832     -0.37430033405818
  C   3.56066669607343      1.04347049002833     -0.25099067507171
  N   2.97640315845882      2.15736747292069     -0.32336723931122
  H   2.44736266425725     -3.07199491057134      0.30267741741183
  H   7.36392360971384     -2.99976945341033      0.97815594133219
  H   6.35272611195044     -5.26324129735151      0.38250408448148
  H   8.04329327641221     -5.02446206636216     -0.08201712402902
  H   5.71094365186265     -4.92326211327664     -1.82915001055751
  H   7.16895280700524     -4.42373495713792     -3.60696431708170
  H   8.53107929856231     -4.50939997586160     -2.48736842838746
  H   6.31374119199014     -2.40972902443573     -2.47120339255841
  H   8.01771757359357     -2.13582769492246     -2.88758154804593
  H   6.74744553650882      0.03270417791299     -0.44487018813458
  H   3.63412594631892      2.91766703827143     -0.47119123274558
