23
Coordinates from ORCA-job 15802optt
  Br  0.98087995444855     -0.19275141295118      0.06049175834144
  C   2.85002806966871     -0.06343825563009     -0.04740604482248
  C   3.63324623970289     -1.17596000914696      0.04021935465816
  N   3.10388227940446     -2.41903064641905      0.18813480212009
  N   3.77757193911254     -3.57094877520886      0.22522585609776
  C   5.05383550466582     -3.50012275774274      0.10050027618821
  C   5.78675253391213     -2.26270981456996     -0.03355379153922
  C   5.08288285140566     -1.08869421395067     -0.02494679293317
  C   5.62356197778438      0.25722972320934     -0.06860752670609
  O   4.78662545986878      1.28573493710423     -0.37908517111089
  C   3.40538642296110      1.23288429348601     -0.33207377227677
  O   2.80603752447507      2.24267596408190     -0.54439377012850
  C   6.88334852574476      0.64015423464462      0.23575162893948
  C   7.99610844177377     -0.17828691131812      0.60711775816306
  C   8.16605271410196     -1.50151196892093      0.44801809755934
  C   7.25229949695470     -2.43559386375642     -0.20871128980652
  N   7.62482615162494     -3.47895136069176     -0.83790167138956
  H   2.09946713431858     -2.50928962183880      0.24849819288006
  H   5.60036656736711     -4.43123976038377      0.10141409585817
  H   7.03976727711392      1.71159061805817      0.24187574841865
  H   8.82751080965518      0.36451064964868      1.04266521366225
  H   9.10335435582151     -1.94035925966759      0.77294063703075
  H   8.64220776811341     -3.54289178803604     -0.87017358920423
