27
Coordinates from ORCA-job 15809optt
  Br  1.14620219909348     -0.20007261877041      0.13401455146831
  C   3.00560241809341     -0.11617885522408     -0.10602250510916
  C   3.77147249275140     -1.24652275610571      0.02891817241712
  N   3.48416715431669     -2.51387424732149      0.35629333258513
  N   4.60364621093481     -3.27721745032491      0.46081488916869
  C   5.59134671584889     -2.49765674254398      0.17092951593572
  C   7.01460095322377     -2.93262905470917      0.24536493391061
  C   7.82576716230108     -2.19842100920704      1.33221418100151
  N   8.91707640805925     -3.13076662702718      1.53773012616004
  C   8.56104277741329     -4.43977305861911      1.27763388851563
  N   9.19677186429966     -5.51156803512232      1.49857191404489
  C   7.18846312844789     -4.40230546544218      0.64038137069640
  N   5.13060405205638     -1.21196260099441     -0.12642208044870
  C   5.79610536131494      0.00219568116635     -0.56794459025607
  N   6.99121840838114      0.03223805500339     -0.99079770112886
  N   5.02226996313476      1.13046872417812     -0.49840319817048
  C   3.73524721826760      1.06481064498196     -0.30981740618394
  H   2.57565324557536     -2.88909890940664      0.57120367603303
  H   7.50299316153431     -2.77980011821527     -0.71970425034886
  H   7.20734207938571     -2.07234182866789      2.22961479307004
  H   8.18264689429639     -1.22033800006034      1.01463993356488
  H   9.65269078305268     -2.92725249393504      2.19459415024827
  H   10.08789120355122     -5.34105151678087      1.96180336271467
  H   6.44973390302706     -4.68772693438260      1.39109970914192
  H   7.11117045209987     -5.09817594694877     -0.19026391808804
  H   7.41857104020933     -0.88162386505308     -1.04624692630466
  H   3.19570274932956      2.00864502953269     -0.30319992463810
