23
Coordinates from ORCA-job 15814optt
  Br  1.17456972862687     -0.61809805544687     -0.51890363421755
  C   3.01004435501226     -0.32215572784488     -0.27693468419266
  C   3.58088263478996      0.91952429338957     -0.18932983676523
  N   4.98428769536746      1.01926309920589     -0.14391492774133
  N   5.68536664896467      2.16765073668543     -0.26734458134486
  C   5.04205014139191      3.27614472174433     -0.33031138669108
  C   3.62773756597038      3.35103209228649     -0.21043464578849
  C   2.89962403862529      2.21258610479657     -0.11095911028743
  C   1.50578984629651      2.36642337388097      0.15617455445181
  C   0.37853846379331      2.66154848171489      0.43498138366660
  C   5.77128963859381     -0.11380575388987     -0.03494055385039
  C   7.25777599693144      0.09261446302046      0.09799790865523
  C   7.61685976839968      0.81151689295408      1.32296457579201
  N   7.89796809656768      1.35515625390609      2.29046239134127
  C   5.22049445309560     -1.33781669349301     -0.05626461893510
  C   3.79545965000534     -1.55793430355029     -0.23369777066906
  O   3.31483249824530     -2.67187142351589     -0.32424326702228
  H   5.65206348393425      4.16359535715542     -0.43154930274070
  H   3.13788812620918      4.31180828409818     -0.15040734562079
  H   -0.63775220137707      2.87349067611822      0.66961664613609
  H   7.64776654816468      0.65387978252391     -0.75131713826042
  H   7.73516480791821     -0.88564186748024      0.11735537546388
  H   5.84429801447321     -2.21591078825947      0.03699996862048
