20
Coordinates from ORCA-job 15810optt
  Br  3.15614732243249     -0.48123692557010      2.55945869807664
  C   3.60343600949029     -0.00040932576447      0.81631823125118
  C   3.38804884645296      1.21731341786502      0.31887032457506
  N   3.80716264080388      1.53012978639300     -0.99496975711091
  N   3.62428506858998      2.88487242400667     -1.24484639256163
  C   2.98552290706731      3.41256982018976     -0.27319385145999
  C   2.61827230883145      4.86163605908137     -0.19693117400748
  C   2.73700556335521      5.62716600622231     -1.52869683066964
  O   3.85859958407872      6.50325052049755     -1.31780969673501
  C   4.20732098857294      6.35219333271224     -0.02854002319597
  N   3.59815645761283      5.51720848747903      0.69372824711793
  C   2.74544901350597      2.44147739653145      0.84098589340676
  O   2.12138475803779      2.60583063082815      1.85198858130974
  N   5.04380039803407      1.08881946850856     -1.43741455313349
  N   5.42510544867954     -0.03040096729929     -1.16135103063909
  S   4.43921666159320     -1.13916851018576     -0.18707747096213
  H   1.62683232558978      4.93794255356098      0.25242559425686
  H   1.86118578093101      6.23987224806582     -1.73445506372947
  H   2.95761569766721      4.98477613547644     -2.37725428411353
  H   5.02145221867331      6.98415744140122      0.30276455832419
