25
Coordinates from ORCA-job 15823optt
  Br  4.25991047832767      0.01073722599355      3.19552813710564
  C   4.04376419537376      0.17368931370802      1.35081160005783
  C   3.89594573821601      1.34587170380384      0.73272182469082
  N   3.80008091982633      1.39269767517229     -0.67586173938488
  N   3.78438759441448      2.71852347097707     -1.11161634970772
  C   3.70347900533168      3.49660988881589     -0.09922452719748
  C   3.52602470281331      4.97038402179864     -0.19322246712557
  C   2.03813383752705      5.35332964324368     -0.19158033494768
  C   1.29745630562268      4.81748620099342      1.00741962709991
  C   -0.19050262410499      4.68316693571155      0.95849003671553
  C   0.67204193811468      3.45394043014370      0.94299966861777
  C   3.80705159394393      2.74516875553475      1.19326226034208
  O   3.80199762768839      3.18293266179459      2.31196501516340
  N   4.67577242258434      0.61907408719765     -1.42108209471918
  N   4.91792650119887     -0.52178840497496     -1.08391289223954
  S   4.16525493030219     -1.23863214636814      0.35820588165534
  H   4.00752500678583      5.33018736077307     -1.10234518548642
  H   4.01951238096793      5.42480198505277      0.66853282667413
  H   1.57370114173062      4.96716525137619     -1.10366159213708
  H   1.96235008347817      6.44253161162364     -0.22734832576735
  H   1.72628901343610      5.08675101142634      1.96585984032879
  H   -0.68478476847531      4.95859809385055      0.03628121483220
  H   -0.75455178586542      4.89636873191471      1.85470377371474
  H   0.74659842333978      2.91106776377212      0.00866757705761
  H   0.69863533742189      2.83833672666501      1.83140622465709
