24
Coordinates from ORCA-job 15829optt
  Br  1.16132654502573     -0.10268039978960      0.91746239766420
  C   2.93650784179515     -0.06641024843956      0.34853530188060
  C   3.66752515680129     -1.16634413073930      0.17085176684176
  N   3.40759364154225     -2.51632248043664      0.24571996076470
  N   4.54072882904213     -3.25323622093788      0.10458828730462
  C   5.49537365852110     -2.42508810727004     -0.13998163762249
  C   6.81957931628879     -2.82962232595180     -0.44762684244191
  C   7.91290446587775     -3.23114874990614     -0.72042156262115
  N   5.02777068782847     -1.09654177506655     -0.14037416300446
  C   5.74274754595000      0.10519556625505     -0.09326801428722
  N   6.99102104924320      0.06271142076540      0.05927321529985
  C   7.84707936971572      1.21257953598468      0.16534853225822
  C   9.11982587768843      0.82057531904185      0.89520094726668
  O   9.90804645410585      1.62170595992896      1.30517778287303
  C   4.85474748478453      1.32130071479756     -0.26794941104011
  N   5.21710648094284      2.42966731189672     -0.77529900389283
  N   3.56275528534385      1.17752652365246      0.18157077719043
  H   2.60020454413849     -2.93274185643492      0.67519316602899
  H   8.88880010332138     -3.58037222091371     -0.96183417483124
  H   7.40264267040095      2.06906125919837      0.68179184018067
  H   8.16726812661557      1.55413638708521     -0.82806513540467
  H   9.26922819423875     -0.26976237081349      1.00977118756540
  H   6.18837132055788      2.42791938067735     -1.05574918025804
  H   2.97584535022977      1.98089150741604      0.00208396228495
