30
Coordinates from ORCA-job 15827optt
  Br  0.89603817924940     -0.80658012643050      0.93655624854250
  C   2.67103107214160     -0.39213136826134      0.49598891538570
  C   3.01551875538121      0.27216109359736     -0.62967290420495
  N   4.33058481349480      0.66044514872037     -0.78675964988067
  N   5.30465391614212     -0.21917022384171     -0.42176834784559
  C   4.98283974658693     -1.09638205517191      0.45325270493401
  C   5.65970185901784     -2.43383978702927      0.37132677659124
  C   4.64520613400349     -3.39427965634911     -0.29999460753033
  C   4.34270510204676     -3.17838427030777     -1.81534072265510
  N   3.98864427609570     -1.82151698807610     -2.17743810197880
  C   2.88964394482384     -1.45796979216004     -3.05082947628875
  C   1.77316244620906     -0.66585595356304     -2.35846042335912
  O   2.22230735775507      0.53914281920819     -1.68603712494946
  C   5.08319575214040     -4.83075595298538     -0.14910558031190
  O   6.12878500946700     -5.18286688183396      0.31954697083739
  C   3.74168022478948     -0.98601507429144      1.27461052602262
  N   3.57536597251019     -1.48587879371162      2.43419477960696
  H   4.54272254743282      1.12698980132027     -1.65593295264364
  H   5.93370215035186     -2.85209464156481      1.33983008227782
  H   6.56825589396864     -2.35316181304341     -0.22589452847856
  H   3.68650053178132     -3.31509960149313      0.22910299944393
  H   3.51400764289173     -3.84128071333717     -2.07859003434324
  H   5.21426681421832     -3.52241641299819     -2.38723937976876
  H   4.81318851237070     -1.27575093378615     -2.36186525671793
  H   2.41456612660368     -2.34861936449867     -3.47733374548483
  H   3.26657604224704     -0.87137886450512     -3.89318468109569
  H   1.25532934297354     -1.29608048042367     -1.63752672148406
  H   1.05551964280588     -0.31277419299109     -3.09737066328801
  H   4.36095810338948     -5.58043086206363     -0.53195190463926
  H   4.42534208711000     -1.94002405812794      2.76488680330650
