21
Coordinates from ORCA-job 15820optt
  Br  6.47089119192143      3.77792292021706     -2.20414764564280
  C   6.60751597871597      2.09274634920140     -1.38134040722241
  C   7.36193730619278      1.88769233076131     -0.26154362997421
  N   8.01018381041022      2.89619871777467      0.41663854969429
  N   9.37148468804060      2.87445724352485      0.75684612596076
  C   9.81861304913645      1.93530956676502      1.48391855552224
  C   9.12438432143771      0.75508592296361      1.97781278591035
  C   8.06498648021767      0.21228503092235      1.39235039653673
  N   7.38053329371453      0.61294544134544      0.25057572147133
  C   6.51853546511371     -0.40363029238910     -0.25195965991436
  C   6.45594000287495     -1.52512744861224      0.49035999983922
  S   7.37540743643970     -1.36201567229299      1.94161259901601
  O   8.43991013471733     -2.31528983017297      2.05470196373679
  O   6.55574961783647     -1.12224781719361      3.09368186297047
  N   5.82718703927724     -0.18528308397813     -1.41228004585487
  C   5.88375821721238      0.99347939783816     -1.93189462648070
  H   7.83401117436399      3.78432465981232     -0.03199055379511
  H   10.86664993275131      2.03896567461545      1.74575825916859
  H   9.55524262641300      0.22148609365443      2.81618741421404
  H   5.86561151218690     -2.39358275393422      0.25859338837734
  H   5.33046672102559      1.15927754917720     -2.85188105353370
