24
Coordinates from ORCA-job 15821optt
  Br  1.25282815605527     -2.35933305565318     -0.90173727108844
  C   2.77453172863138     -1.57981284082526     -0.10877703469752
  C   3.04337479543896     -1.76463208910639      1.20821737737232
  N   4.13640228752584     -1.10715042466886      1.73865983104994
  N   5.27713731249801     -1.04645522029544      1.00522684418840
  C   5.14738690202689     -1.13191867213590     -0.26691897926005
  C   6.20798720898778     -1.98884219454234     -0.93509245704917
  C   5.50180603495118     -3.33940140215804     -0.75843608311510
  N   4.92998199827848     -3.63165090385101      0.37391396956133
  C   3.93393956769696     -4.53264119702776      0.22354890789085
  N   3.05046735043688     -4.74806357186092      1.30527451357919
  C   2.38934091980766     -3.82840935443712      2.08168429968574
  N   2.34699024797415     -2.55201845577843      2.10337946179032
  C   3.80838593235039     -5.06278019615502     -1.02732934984311
  S   4.93292232238490     -4.30377760758446     -2.06563415401123
  C   3.82858478215504     -1.05546395449848     -0.96154612947965
  N   3.80248151586643     -0.75201399708908     -2.19882959304415
  H   4.32516049251004     -1.29721375026972      2.71148651963602
  H   7.13662395916253     -1.94902630503907     -0.36887740552619
  H   6.37017722104299     -1.76594841356446     -1.98583676483954
  H   2.78114212991562     -5.70223461328242      1.48034089164599
  H   1.78871748017051     -4.33393529210490      2.83483733082395
  H   3.08599013576438     -5.77465897516830     -1.38971783281344
  H   2.85263951836770     -0.80061751290342     -2.56683689245646
