22
Coordinates from ORCA-job 15830optt
  Br  0.78393663718640     -0.19861097377411     -0.25094667741352
  C   2.64213021928358      0.12609744953780     -0.18367150165635
  C   3.14237666410650      1.39284431988975     -0.24099700199973
  N   2.32264038021619      2.48216734077215     -0.45366469283204
  N   2.24644251062948      3.55955456371520      0.44822615873609
  C   3.27707070105887      4.29295498658701      0.56516996872414
  C   4.54954304650707      4.10801148363549     -0.10298270393400
  C   5.07043834239373      2.92991996244229     -0.43617418326852
  N   4.52883620471129      1.65186910492545     -0.18669141359683
  C   5.50613211734339      0.64008083252825     -0.03953105790278
  O   6.67356884828678      0.89922739826693      0.00161028366740
  C   4.96691068392144     -0.75032976011909      0.03799438943778
  N   5.68555947007263     -1.78195651434040      0.18100428100165
  C   4.70894873164711     -2.89183987444965      0.19219273331534
  O   5.03704706705627     -4.02839170805929      0.31285178584913
  C   3.33838082352384     -2.32484947060816      0.03478896291439
  C   3.49758894173530     -0.99936403456409     -0.05953608650797
  H   1.37325891204189      2.17179978335234     -0.60513297180104
  H   3.15045722637778      5.15018617775785      1.21876372296366
  H   5.14086202560223      4.98898247767251     -0.31164545685377
  H   6.05832529278197      2.87105057237442     -0.86866232238722
  H   2.43854515351618     -2.91640411754266      0.01603378354419
