29
Coordinates from ORCA-job 15835optt
  Br  1.87800501343040     -2.68336645662347     -1.38025729974441
  C   3.38697135721423     -2.35650243251856     -0.32618032831046
  C   3.49270232869155     -2.78077832643616      0.96872259040916
  N   4.54499552313720     -2.31374001516060      1.71440005832011
  N   5.72397145033137     -1.97343562159234      1.15461347069202
  C   5.74472200443734     -1.79403351580952     -0.11752990672928
  C   7.05455279700748     -1.94226323532810     -0.82222725504397
  C   7.31819395830837     -3.45508139338285     -0.92949186591617
  O   6.24481575978495     -4.12349162106578     -1.59497273919143
  C   5.28765541229855     -4.87632563538499     -1.00636652205230
  O   4.42294296648861     -5.33445817253985     -1.69479111993417
  C   5.36952878128877     -5.17056346662945      0.48044145170037
  C   4.09824708684686     -5.80799218162159      1.05882778606546
  C   2.76083828441995     -5.06735918930371      0.91610951230575
  N   2.66786318007566     -3.73089148017864      1.54526624174148
  C   4.51724769992657     -1.71296623468461     -0.95574226415892
  O   4.53985343229675     -1.23345043366370     -2.06943794097141
  H   4.65006763787006     -2.64676472896610      2.65987614552518
  H   7.86628398824281     -1.48938483880511     -0.25254645635759
  H   6.99838325440858     -1.49474269951551     -1.81221670364566
  H   7.48838913288179     -3.87137620928887      0.06333201369157
  H   8.20132007071376     -3.64065519467218     -1.53925278775205
  H   5.66703148176175     -4.28662707954591      1.03580098725271
  H   6.19632137051846     -5.87773916662297      0.60914799126669
  H   3.95314117601030     -6.77741860509066      0.57747828054690
  H   4.28845362330626     -6.00988065022419      2.11765810318693
  H   2.51350500523418     -4.96108090974241     -0.13622589718381
  H   1.98030888173508     -5.67723186755354      1.37060748309561
  H   2.74968734133227     -3.77339863804860      2.55295697119169
