23
Coordinates from ORCA-job 15832optt
  Br  1.00609496709434     -0.04586183377176     -0.13090389153279
  C   2.89780669092652     -0.07773728736009     -0.09105691793440
  C   3.59074500741190      1.11680649605331      0.00928168460625
  N   2.96176652512811      2.31724150903826      0.09818913973972
  N   3.53139686821443      3.53192052776692      0.16104776322438
  C   4.81592373121152      3.56469054426677      0.06720226987061
  C   5.63277349882715      2.39753612279265     -0.07370310149667
  C   7.05854819216911      2.59100301825744     -0.37759285244184
  O   7.66852068360610      3.59979310238781     -0.12549876490426
  C   5.04539965557948      1.15142607749587     -0.01180525065024
  C   5.69825264367850     -0.12124301254574      0.02407089346904
  C   6.99836889116790     -0.50248383489626      0.24924962567167
  N   7.09058217849347     -1.86291945373750      0.17976508442034
  C   5.83673502300334     -2.47203765835907     -0.05465834971711
  O   5.65704371408507     -3.66370371590286     -0.13016566480402
  C   4.92561426872570     -1.33115057444201     -0.13233435102989
  C   3.56914316470659     -1.31307192555675     -0.17871077173459
  H   1.95266130081442      2.33150319008934      0.13595968859096
  H   5.28156671055886      4.54088850473547      0.09241933256696
  H   7.53934315390392      1.75930695515346     -0.92356638977912
  H   7.86059570513357      0.09114503695342      0.50708651088020
  H   7.92659935010013     -2.40282411459416      0.33178267481356
  H   3.00551807545982     -2.23522767382453     -0.25005836182877
