23
Coordinates from ORCA-job 15834optt
  Br  1.04040588682400     -0.12788222174444      0.21882334650355
  C   2.91489806949302     -0.04841545163817      0.12028845266413
  C   3.63511800494556     -1.19001166856190      0.04901238112748
  N   3.08109357514840     -2.45195092698559      0.03158782159967
  N   3.74514888638255     -3.59638298101809     -0.00817820044565
  C   5.03236703014813     -3.54805907219725     -0.04655012102718
  C   5.76880187879164     -2.30940871340800     -0.07433764041430
  C   7.26231908906311     -2.35800405257573     -0.15262143763317
  O   7.90800213684800     -1.58821721220467     -0.80720710702871
  C   7.97587372136990     -3.47791456994078      0.61505633746492
  C   7.38309449906916     -3.75170341962932      1.91914195874427
  N   6.89290839158868     -3.94116043092165      2.93654455924020
  C   5.07958871144352     -1.13848607269836     -0.02518912617296
  C   5.66892041479133      0.19950877501189      0.01669413086347
  N   4.99072567581965      1.27376507691662      0.08563306246785
  C   3.56922185798442      1.25062850944375      0.11705982109186
  N   2.91233370939946      2.33749768623877      0.14990072755358
  H   2.07523942307822     -2.53889370597918      0.07267327899979
  H   5.53356597239856     -4.50594171615731     -0.07489458802899
  H   9.01902162554329     -3.18545191522988      0.72348223952651
  H   7.94616984999418     -4.38876949271798      0.01009280419965
  H   6.74965424712141      0.28284793515054     -0.00615092305772
  H   3.56852734275374      3.11740564084674      0.14613822176175
