24
Coordinates from ORCA-job 15846optt
  Br  1.53034229408002      2.31690365595971     -0.82020554807654
  C   3.34644688380123      2.49125334825107     -0.33340155105101
  C   3.95644205810981      3.69572230806944     -0.31408646618214
  N   3.33477554367468      4.87078224563704     -0.75767299134125
  N   3.13271095380193      5.96540144108638      0.04840842640572
  C   4.10865384126210      6.39624173653859      0.74006515683759
  C   5.48401138061187      5.90743880326058      0.78431455432460
  N   6.01501695490172      4.79838438515940      0.44302811518986
  N   5.32875185344877      3.72761864144501     -0.00298238441581
  C   6.12117505382146      2.58090575990329     -0.21842919893359
  N   7.32817048246758      2.76009801509961     -0.58099194771634
  C   8.28455446121263      1.79255248986385     -0.78609991766813
  N   8.44352292652516      0.61720675437774     -0.30887442400418
  C   7.50780452043275     -0.01472323557478      0.48643428633675
  C   6.18935180820752      0.21445324622227      0.60445219319627
  C   5.41755418744506      1.31535382922485      0.04970681083594
  C   4.07108939155605      1.29481419754882     -0.02316895315112
  H   2.45588127507047      4.64934967670288     -1.20279333559712
  H   3.90021744757288      7.28604852082082      1.32324521432782
  H   6.20316373646942      6.60825441015469      1.19637917824883
  H   9.07040258556899      2.14603560858083     -1.44869365755990
  H   7.91070526909996     -0.87240291100897      1.01340790464447
  H   5.62416572716338     -0.47794857543318      1.21814316841230
  H   3.52108936369442      0.38625564811000      0.18281536693698
