24
Coordinates from ORCA-job 15844optt
  Br  1.18839283663393      0.71106625738286      0.95223121478453
  C   2.93350145877531      0.28304869987735      0.45395101982941
  C   3.41931065171596     -0.96419085193474      0.40823308439047
  N   2.90436980304779     -2.22056523062154      0.64847060030134
  N   3.84862708896364     -3.16694831774488      0.47606699744939
  C   4.94812500396519     -2.60173708716149      0.08313976915255
  C   6.18751189791604     -3.38525585571706     -0.19446460380809
  N   6.67698291299870     -3.09570029365224     -1.53454710382002
  C   6.80066823056534     -4.06409617971555     -2.30901741810010
  O   7.25727788688999     -3.82448044415305     -3.58165990328417
  C   7.45457738791241     -4.88765077580363     -4.39635601414579
  O   7.27627524842847     -6.02745242811273     -4.10857479927661
  C   4.78357735503256     -1.15997254725136     -0.00322576743213
  C   5.56626809850024     -0.11598380055541     -0.34733346667202
  C   5.02769237365570      1.23028799632877     -0.27410411743086
  N   5.57493116998656      2.33944048096836     -0.52666203512730
  O   3.69270537129919      1.33229150842642      0.13977133827954
  H   2.03660661953269     -2.45858062314306      1.09368789225323
  H   5.97568521642505     -4.44559125220296     -0.02466630723141
  H   6.96712692657662     -3.07353154181155      0.50672445465194
  H   6.58348997977783     -5.11018332482843     -2.09661255553609
  H   7.81057890540525     -4.52453133377930     -5.36575604280121
  H   6.58199910026533     -0.24207220250385     -0.69341024078009
  H   6.53671847573012      2.19938914770915     -0.81888599564650
