23
Coordinates from ORCA-job 15851optt
  Br  0.99350534405932     -0.29529950995709      0.23774440955619
  C   2.84253646604700     -0.10326644257019     -0.03053625943407
  C   3.70004026231782     -1.12049985389473      0.19351245232922
  N   3.38439348672444     -2.40047400373322      0.59726268138238
  N   4.43592854003910     -3.20165813840942      0.63640152864450
  C   5.49609097508468     -2.49753264507242      0.32364707537172
  C   6.69238685333191     -3.31553477511305      0.07899371213398
  O   7.67775164221653     -2.96648072238935     -0.51743003197380
  C   5.13840198900629     -1.10429672812367      0.06096981964586
  C   5.85123054972256      0.05081617323142     -0.19013943840975
  N   7.18199669636833      0.24493737549365     -0.10972911424883
  C   8.08129396304190     -0.43896234554716      0.77697234012574
  C   9.07196351593281      0.53207211281851      1.36701743397491
  O   9.13041032414563      1.68778539179392      1.05914187492674
  C   5.15664031970301      1.30275984714675     -0.59804904844952
  O   5.77772256998654      2.28708037052151     -0.93430684219888
  S   3.39904429759305      1.41878493348767     -0.58592047843985
  H   2.45848736325115     -2.76894658704536      0.73986429656695
  H   6.57485953919150     -4.34529486765095      0.45599659168354
  H   7.46052671600115      1.19645588360359     -0.33993313327651
  H   8.65617115984250     -1.22076274803007      0.27442787031133
  H   7.53626993413608     -0.93068143253967      1.59118673784146
  H   9.77934749225659      0.09299871197936      2.09290552193671
