20
Coordinates from ORCA-job 15853optt
  Br  1.55384631645286      0.04739123310455      1.82375251714881
  C   3.17638330659934     -0.00539660551687      0.90903135988100
  C   3.75564143601456      1.03410449206572      0.29979848780824
  N   5.04865522167532      0.81224565754146     -0.25915094443862
  N   6.11655034567674      1.63473325109074     -0.15472985768626
  C   6.09397376766830      2.82764464949000      0.28192170503585
  C   4.99157885605521      3.78818645694683      0.58953692172675
  O   5.29003123552970      4.85909366059377      1.06278233047457
  C   3.60787386722772      3.52186277676806      0.16262505539712
  C   3.05391072908602      2.31249997935408      0.01976295934422
  C   1.71781608591077      2.22887797339688     -0.48640345505768
  C   0.61711721460699      2.17730257750281     -0.95692402334832
  C   5.40666490585407     -0.47242336893548     -0.69550264778667
  O   6.35232517362481     -0.71716407138631     -1.36940683845272
  C   4.56943882009409     -1.61441039656382     -0.09630557182833
  O   4.73576519107471     -2.74827062166909     -0.36350306295099
  O   3.70678945482671     -1.25275425750982      0.91140581363101
  H   7.07363970691446      3.28514378376004      0.38045588830329
  H   3.01651617000815      4.40658074356476     -0.03559325145842
  H   -0.36451780490059      2.12475208640169     -1.36555338574288
