23
Coordinates from ORCA-job 15859optt
  Br  1.92416396203115      0.98015066794383     -0.90771688569719
  C   3.70616107633394      0.59259665473077     -0.42207580593665
  C   4.58040410252846      1.54320073104506     -0.02232082683587
  N   5.88724936812081      1.17369275086458      0.29036458082949
  N   6.90774440358085      2.02535111474815      0.52858117799540
  C   7.00452960330721      3.22876582333835      0.13680383603995
  C   6.12208561452048      4.13867619919283     -0.66544361707970
  O   6.62186167481464      5.07047903178516     -1.24354464086919
  N   4.77129136507676      3.92133692917971     -0.64095244243492
  C   4.15220856664425      2.96602102018582      0.17557723391243
  N   3.20489119269345      3.33109765815789      0.91752977439845
  C   6.28809065737382     -0.20255499533313      0.46893746722896
  N   7.39394182257833     -0.56939776236992      0.94745804444849
  C   5.30951335869980     -1.17581515705372     -0.03948513247332
  C   4.09978988241189     -0.78219694090978     -0.48618335832030
  C   5.69205619141000     -2.54684403242872     -0.04521975054031
  C   6.00387658243409     -3.70369142004615     -0.05428882453996
  H   7.94713890387364      3.70908727168013      0.37629794266070
  H   4.20252334380375      4.72420178416553     -0.88282794810068
  H   2.76524914571060      2.54359235215213      1.38943031154918
  H   7.96431222870364      0.22514678635160      1.22579380222994
  H   3.39923218681523     -1.51169461453266     -0.86730345820164
  H   6.29068476653314     -4.72820185284747     -0.05641148026327
