24
Coordinates from ORCA-job 15855optt
  Br  1.10935896446454      0.02475273310026     -0.35275283658316
  C   2.99036937626045     -0.05063009702641     -0.16431511762427
  C   3.63709852471943     -1.25391843862913     -0.16803168491964
  N   2.96849390252274     -2.44184757200659     -0.29981970351306
  N   3.49893008657281     -3.63971770034754     -0.28844456965922
  C   4.78547548631991     -3.75247048553982     -0.15355217262330
  C   5.30505330967537     -5.16016225631941     -0.13255099871577
  O   5.75120630979089     -5.47671392238028      1.17774595088898
  C   6.91742605008756     -6.15861313031095      1.29803430381166
  N   7.37915209295478     -6.58265308631479      2.38041069593688
  C   5.62610558409922     -2.58807713775219     -0.02950907621615
  Br  7.46383695626798     -2.91371477287701      0.11484827416219
  C   5.08139864448691     -1.33408605728403     -0.03599789483054
  C   5.86901227429626     -0.05635870537444      0.08169145137697
  O   7.08507448512842     -0.05607055044431      0.15904903698673
  C   5.08007833227887      1.15623501246359      0.09582342856611
  C   3.73047376585407      1.14663496652108     -0.02530843893393
  H   1.96239678099011     -2.42169297009005     -0.40385838024119
  H   6.11919778539805     -5.28158900557709     -0.85082009699730
  H   4.48259392805268     -5.82165839856874     -0.40388298727235
  H   7.44807424057662     -6.31326551304700      0.35807116956340
  H   6.76096458992150     -6.35642451174904      3.16009336886901
  H   5.62825429266050      2.08186912374165      0.19826288377544
  H   3.18097423662024      2.08017247581225     -0.01918660580751
