21
Coordinates from ORCA-job 15866optt
  Br  1.45973777021361     -0.96204351053226     -1.08130482300764
  C   3.25897450649120     -0.88446505498883     -0.60735607171264
  C   3.98963994757556     -1.87313211193090     -0.06224577016448
  N   5.35506014904703     -1.53277721899020      0.19120714524832
  N   5.62431998522124     -0.21681435683413      0.62093933766444
  C   4.88748694481681      0.65943507989751      0.08485231754817
  N   3.85613477334952      0.35235397997670     -0.79046002234901
  C   6.46024598662043     -2.32593589020188      0.07761681209224
  C   7.75371918477251     -1.66664306027672      0.54836150707751
  O   8.69508658941933     -1.53399563990615     -0.17026485885975
  N   6.55538113264353     -3.52664710346939     -0.33902278524056
  C   5.46940566592837     -4.34357092820392     -0.61262626686704
  N   5.29962889683372     -5.08033152888794     -1.62194493964156
  C   4.41005310208616     -4.36102815529075      0.47401797501333
  O   4.30070270114561     -5.19559472987222      1.31714787670122
  C   3.42409884697110     -3.17902723412778      0.37871017094748
  O   2.25487863866226     -3.36361398658869      0.56195316628664
  H   5.04923193359574      1.70151488650024      0.32772316508579
  H   3.27346868656688      1.10155896120198     -1.13029466989455
  H   7.76808909407263     -1.37290542245156      1.61012162496809
  H   6.07965546396671     -4.97433697502307     -2.27313089089599
