23
Coordinates from ORCA-job 15862optt
  Br  0.88478975294268     -0.09538991710180     -0.22849959860818
  C   2.73051186356137      0.02552311231817     -0.36163618513155
  C   3.46282753511071      1.04866572856083      0.05699572768259
  N   4.87239292737238      0.94880008290903     -0.07648275988608
  N   5.49955916465081     -0.28579004092823     -0.15914896298043
  C   4.74667998776298     -1.21712989399320     -0.58165904859475
  N   3.40737706404538     -1.07042031708133     -0.92448294201169
  C   5.39765704969819      2.02327992171602      0.59292912367696
  C   6.87595844972248      2.10429775348536      0.75568807918859
  C   7.36117823453329      3.23785193062543      1.58485053895688
  C   6.82751323272651      4.32549752891267      2.18374452378160
  N   7.87229796145263      4.97661716330192      2.80153983223073
  N   8.94159179932764      4.36718252143280      2.61228271484518
  O   8.67122991479631      3.24123147258649      1.83629486221496
  N   4.51924761059621      2.87668675302098      1.00401657155709
  C   3.23845177008737      2.35171346847461      0.70478613166315
  N   2.10693569467988      2.87991863139930      0.90985697335139
  H   5.17193599117880     -2.20553849667207     -0.69301820634579
  H   2.86975769253151     -1.90972616772157     -1.07212424639384
  H   7.33300928013808      2.15572417026948     -0.23746296204667
  H   7.22665126052724      1.16087801515915      1.18328767837891
  H   5.81458477002140      4.67422977427428      2.21769281035580
  H   2.22886099253604      3.79389680505164      1.34454934411516
