22
Coordinates from ORCA-job 15868optt
  Br  1.92598782439132     -2.68010868438285      0.81429250930376
  C   3.40371361555390     -1.87597621361382     -0.00061090029923
  C   3.73066972991204     -2.02469838201920     -1.28026517085653
  N   4.92033028420344     -1.39241439965773     -1.69796971227262
  N   6.01066253299380     -1.65720294097030     -0.84338043999133
  C   5.70080322793020     -1.62002507142685      0.38250723286328
  N   4.39239743080706     -1.27030208382324      0.79847682874525
  C   6.55050383643731     -2.41080524060237      1.33344439164174
  N   7.51034101413650     -2.06508735790880      2.06377658642138
  C   6.04644879648090     -3.88082494759219      1.32058157431628
  O   5.74348167623403     -4.44081159726891      2.33313053659342
  C   5.84360875023639     -4.37464659581407     -0.07276235931178
  C   4.61265410635234     -4.56804049317518     -0.51538417822109
  O   4.37256689111022     -4.67803938707713     -1.86816541804849
  C   3.35059840449205     -4.07171583089141     -2.51811865107951
  O   2.79182680611508     -4.58977029605290     -3.41694781933976
  O   3.02552107828415     -2.78523842873391     -2.16857119095489
  H   5.17972956204339     -1.59847477647795     -2.65276955372736
  H   4.21740743429901     -1.26166583031915      1.79287338842175
  H   7.71826131258252     -1.06958203595583      1.96873750810395
  H   6.64246473921936     -4.21889015067714     -0.78761839756861
  H   3.74202094618492     -4.65167925555904      0.12374323526038
