17
Coordinates from ORCA-job 1587optt
  C   2.22752819663290     -1.06309537609523      2.16916191993230
  C   3.16745009248169     -1.24407993173074      1.01431947915751
  C   3.58950445326605     -2.43345075980523      0.60100525943674
  C   3.63825655328764      0.03164318558867      0.35222497705846
  C   4.64040260530257      0.71961305714116      1.26913117804871
  C   6.08036235993496      0.29961720065934      1.11863377459675
  O   4.28419051859225      1.52893219055184      2.08664072112087
  H   2.64342747272594     -0.36854376118133      2.90189208135751
  H   2.01170817302901     -2.01196757396937      2.65716667454071
  H   1.28769971634660     -0.62612660670351      1.82236006360596
  H   3.26730177600046     -3.34437914742229      1.09035228226445
  H   4.26066115956783     -2.53441555621667     -0.24367461703874
  H   2.79942155772367      0.71422449801732      0.20797620020941
  H   4.10231380001707     -0.19321146170211     -0.60859916953742
  H   6.45895164714560      0.66821791187982      0.16230054127254
  H   6.15177238051669     -0.78912908274857      1.09859986692776
  H   6.67804753742904      0.70715121373693      1.92950876704648
