23
Coordinates from ORCA-job 15878optt
  Br  1.16849129277383     -0.94993480760769     -0.12608178080803
  C   3.02005557713289     -1.11476088512657      0.11066390106017
  C   3.72242960399598     -2.25362413013525      0.21709568348631
  N   5.12797269993705     -2.08383056116386      0.49430093895040
  N   5.46969517880976     -1.00079038788055      1.35981454123879
  C   4.76304700793489      0.03375736301611      1.19399491400575
  N   3.66513495067225      0.08780668099143      0.35414395466247
  C   6.03313240519193     -2.14166099240903     -0.61345179135792
  O   6.64409790161733     -1.20048950606257     -1.03493345133738
  N   6.13871080676924     -3.42295192823808     -1.11772790119402
  C   5.68630735786713     -4.49362247086077     -0.35852505256995
  C   4.96102826101405     -5.54712812908636     -0.73389563777076
  S   4.02523619956166     -6.26214452422193      0.57179153820419
  C   3.40281896399344     -4.66778805570962      1.19886425446893
  O   3.13793762585791     -4.48282466090296      2.34265371634274
  C   3.11039263589708     -3.60050161564555      0.12041336764181
  N   2.24873154497855     -3.83721791278003     -0.77314869502240
  H   4.98871431276906      0.92329744014855      1.76896137763916
  H   3.09900933433774      0.92080730400529      0.36254600820603
  H   6.47000257786848     -3.51863550455935     -2.06483664162628
  H   5.84954538135363     -4.33531369993673      0.69891224830774
  H   4.71577271833248     -5.78787180932910     -1.75878043113699
  H   1.89273566133359     -4.79257720650535     -0.70277506139077
