27
Coordinates from ORCA-job 15871optt
  Br  1.19288420441387     -0.44295874593113     -0.04497275281381
  C   3.01457473294007     -0.14130595795986      0.20283822204811
  C   3.62084160778883      1.04392160503444      0.23630034672300
  N   5.02505313635974      1.06517974814743      0.39089548410656
  N   5.78533695073909     -0.01301939935436     -0.02432120408570
  C   5.16900588736911     -1.11853987660393     -0.03255830950908
  N   3.82420774312049     -1.28032309024219      0.32761042087135
  C   5.46538191369946      2.38133036109412      0.14709291326663
  N   6.63960798059642      2.80231685599449     -0.01760204190164
  N   4.30899670671177      3.20176758881202      0.10978355547255
  C   3.26630832992545      2.45222430618897      0.13046519150089
  C   1.87074220348031      3.00662030035151      0.10845606516223
  O   1.11521747441109      2.58827258842374      1.21757385215131
  C   1.60537224425645      3.07901069816757      2.45166764541520
  C   0.66491976347265      2.59074827348485      3.52918692788550
  C   1.07669622940769      3.02305008902712      4.90678353312274
  O   2.05261212156043      3.68008014473481      5.14207092471649
  H   5.70289654672843     -2.01114261573385     -0.32927157093908
  H   3.39600434230819     -2.16322928040403      0.09786908267468
  H   7.30059717781913      2.02775991729323      0.02053435516278
  H   1.34387462618953      2.64769879733636     -0.77741244967172
  H   1.94988576885955      4.09693379362130      0.06216530494008
  H   1.64868846590409      4.17347340940888      2.43792745347142
  H   2.62142057048950      2.71745993710661      2.64232011363524
  H   0.60301083258917      1.49730777067381      3.51760480978391
  H   -0.35389318324345      2.94726467912166      3.34665746632720
  H   0.41175562210289      2.69409810220641      5.72833466048311
