22
Coordinates from ORCA-job 15875optt
  Br  1.17226454681288     -0.20810941990734     -0.05011241315082
  C   3.00348920942669      0.02630127886389      0.13070234345518
  C   3.64818947183278      1.16956849903470     -0.05047835418468
  N   5.06492162533710      1.14557157220729      0.09569492331341
  N   5.78305201326433     -0.01891698891168     -0.15986546050572
  C   5.10733910989883     -1.07346983403687      0.04244206431528
  N   3.77498435519088     -1.10553041777161      0.44800774475017
  C   5.47475120893777      2.37774084194047     -0.31975280948239
  O   6.78011774230787      2.57696384804874     -0.43745539392076
  C   7.14330369615385      3.90227836543517     -0.74120621552646
  C   7.10340418185607      4.78930931322002      0.51566963973968
  O   6.70313604724566      4.38430729031941      1.55796038929355
  C   8.49725801740578      3.90708317672038     -1.30077984751582
  N   9.56095744214201      3.98164875607754     -1.71593543630865
  N   4.54840907780132      3.24092642929895     -0.56176868802492
  C   3.31778881677201      2.55930631623448     -0.42122021656400
  N   2.14655694245375      3.01740879320793     -0.55246775049315
  H   5.59385016040444     -2.02802483517198     -0.10738883954980
  H   3.30398641055393     -1.99578732817271      0.41401172460803
  H   6.45018565680895      4.33583061548424     -1.47076892240480
  H   7.46902638715208      5.81916156490449      0.36068693583392
  H   2.18802788024098      4.00843216297447     -0.78597541767723
