23
Coordinates from ORCA-job 15881optt
  Br  1.92145655514582     -2.42520803841240      0.49977833762205
  C   3.48461525821889     -1.46324711136778      0.10621535691514
  C   4.03195275843560     -1.29793187858446     -1.09732898382166
  N   5.17061820317566     -0.42398044833075     -1.15758899981457
  N   6.14861341856769     -0.83862081886812     -0.17338102061252
  C   5.61892512143898     -1.15797496069474      0.93232856376425
  N   4.23730964447826     -1.00278212267281      1.17434924606180
  N   6.23592069239254     -2.02354018465209      1.86193872749066
  C   5.63181099149372     -3.31554732602884      1.52489690547442
  C   5.48892563831291     -3.69583038341677      0.25481628736105
  C   4.43274243080554     -4.64680161487078     -0.14438070235319
  O   3.95376439745255     -5.47328341985350      0.57703972921986
  C   3.88104675453759     -4.58662331651760     -1.60782393925103
  O   3.66500636315872     -5.64864071042798     -2.12372451141658
  N   3.62957893351712     -3.43605736353091     -2.36999352254694
  C   3.66709989008793     -2.02894984382549     -2.33950196129005
  O   3.43417106820498     -1.44172478102691     -3.36127929369549
  H   4.90974517296411      0.54580030771243     -0.99471252289630
  H   3.92490494730678     -1.25102322821249      2.10235233783979
  H   7.24427931082321     -2.01260061484264      1.74217980092145
  H   5.13409895641796     -3.83726937473192      2.33416796409776
  H   5.98225413768646     -3.14613028711316     -0.53646443241895
  H   3.32315935537687     -3.73303247973023     -3.29288336665095
