24
Coordinates from ORCA-job 15887optt
  Br  1.20659230711326      0.25549789392667     -0.04583093542282
  C   3.07307633939036      0.03921824395544     -0.02662625956068
  C   3.83248903982702      1.16312471104945     -0.01996452687816
  N   3.54814893938561      2.49289896374256     -0.02192611194067
  N   4.67396938614991      3.26241517720833     -0.01300064371306
  C   5.65343118823392      2.43226243472814     -0.00574816832481
  N   5.20876752570601      1.12306958149031     -0.00932774200914
  C   5.88452129752640     -0.08644029396496     -0.00620943290339
  C   7.30468732358162     -0.00557865091569      0.00096767841929
  C   8.49915103425552      0.09955053741119      0.00555171427962
  C   5.16926150878252     -1.24887477073001     -0.01080544543336
  C   5.85259685854086     -2.52337616196872     -0.00723384108714
  C   5.17016780195092     -3.67408934613034     -0.00883819826135
  C   3.70133773793439     -3.71855164549167     -0.01467552382294
  N   3.02395877463492     -4.81142785616972     -0.01459342137703
  C   3.02756867646274     -2.43860813502545     -0.02089005841212
  C   3.69798068707229     -1.25710862911540     -0.01955505017404
  H   2.63406844393734      2.90995110523048     -0.02728045200197
  H   6.69725851271086      2.69379892092637      0.00190709277414
  H   9.56109367739962      0.17527277234189      0.01082138017043
  H   6.93519523896158     -2.51830337662885     -0.00251642930652
  H   5.69770972863873     -4.62173240823952     -0.00563948199990
  H   3.64710211810920     -5.61806269497394     -0.00978498796737
  H   1.94686585369436     -2.46090637265653     -0.02680115504701
