22
Coordinates from ORCA-job 15883optt
  Br  1.77617869684497     -2.03524864091123      0.93358964563910
  C   3.36063900478178     -1.14343281290676      0.47641399418069
  C   3.79266145870976     -0.81198467796786     -0.74977129262294
  N   4.97358061727003      0.00947743779970     -0.75699025613037
  N   6.02278602841005     -0.67736228319408     -0.02281749045307
  C   5.59637345564794     -1.14598853145360      1.07213294433470
  N   4.27384490610944     -0.96664510876637      1.50492158546772
  S   6.55923152347917     -2.38422669937211      1.91051289713764
  C   5.89034937252771     -3.78218192794265      1.00680903683660
  O   6.24241811956431     -4.89480828434874      1.21930003191578
  O   4.96597574082029     -3.40092585515890      0.09358783281256
  C   4.31708279549435     -4.36386524133347     -0.63952195761419
  C   3.36050797288294     -4.09453498819004     -1.52235242968695
  C   2.71167488372270     -2.82833992300031     -1.98854961306622
  O   1.60676990004632     -2.88860358563095     -2.45944918315321
  C   3.48131898380941     -1.51327600354335     -2.00532289226501
  N   3.95014993206011     -1.19534135019359     -3.13555190222281
  H   4.79874235117398      0.89596528085387     -0.28622856074169
  H   4.02899843986841     -1.34345515059698      2.40876796527592
  H   4.62966959357649     -5.37427816020053     -0.41356043374624
  H   2.90076638007016     -4.96425996671998     -1.97530002105736
  H   4.50827984312964     -0.34168352722205     -3.05161990084065
