23
Coordinates from ORCA-job 15885optt
  Br  1.81860495419965      0.61701345202920     -0.84125341044614
  C   3.64879891008764      0.34914373115329     -0.53290244398774
  C   4.06342955692507     -0.87086322603793     -0.06691336579304
  N   3.36740269901022     -1.98007968282087      0.25325065305218
  N   4.16884986030586     -2.99056622524187      0.69289793880201
  C   5.35907013961130     -2.51200789579807      0.63440017233306
  N   5.36842077622774     -1.21019989647997      0.17070977331240
  C   6.43520621961037     -0.31687667653181     -0.08085754065661
  C   7.69241051100970     -0.82484206568232     -0.12914896264804
  N   8.84918196851106     -0.21494077337761     -0.52597293948284
  C   9.10809757295059      1.02964137752714     -0.46627868395382
  C   8.27237022494705      2.10265113944832      0.13026851935837
  N   8.86194946632357      2.99637328812059      0.81271182834832
  C   6.86801643579254      2.10769370139455     -0.27693821621581
  C   6.03536991212834      1.05176956134698     -0.35621458511273
  C   4.59196235445123      1.39966383485111     -0.72076359958349
  O   4.32097690200299      2.52038943161890     -1.10742788420370
  H   2.36765935783579     -2.08509625541759      0.20614352740999
  H   6.24092674725587     -3.05245455174688      0.92818276894363
  H   7.81888618874208     -1.88621708615830      0.04529525365611
  H   10.05940664881911      1.36785019418781     -0.87283552546200
  H   8.20489445936770      3.70904094486054      1.13414517784684
  H   6.43310813388442      3.07091367875481     -0.52949845551695
