22
Coordinates from ORCA-job 15897optt
  Br  1.11590531190356     -0.28792275037692      0.29203238824221
  C   2.97209944250739     -0.17092441980616      0.10312393473665
  C   3.71963978323823     -1.30375261269985      0.13817166777129
  N   3.42885818241519     -2.62131417309310      0.27316659371856
  N   4.53343354061536     -3.40411269878038      0.21930933598591
  C   5.52758499052543     -2.59902396271013      0.05827098254264
  N   5.08716516905881     -1.28463898465455      0.00355847344494
  N   5.79675581846683     -0.17114119836924     -0.25038122509009
  C   5.11224752454662      0.91485125505733     -0.28316701938820
  C   3.65289219029478      1.08270343647609     -0.08604430434675
  N   3.05644787519795      2.21572820929582     -0.10360581522573
  C   6.93583189811432     -3.03486105363786      0.02039921078240
  N   7.17763964292053     -4.22597729270813     -0.51553340151192
  C   8.45116546453978     -4.59082824910922     -0.47975438343208
  N   9.44998817400736     -3.87158774353469      0.02104555933831
  C   9.08302234173013     -2.69850965205731      0.52005094218637
  N   7.84260828087676     -2.22616695756256      0.55368687177309
  H   2.51612555652150     -3.02217957026676      0.40679017813292
  H   5.68941502774491      1.80959675628784     -0.49204673930859
  H   3.71522971711294      2.97532866497614     -0.26062666117712
  H   8.69796024327465     -5.55962194686986     -0.89972572834042
  H   9.85898382438691     -2.06964505585647      0.94227913916561
