21
Coordinates from ORCA-job 15895optt
  Br  0.97507000923591     -0.35731814865486     -0.34132359235485
  C   2.81102958432818     -0.17975833520280      0.01590714200057
  C   3.59153856964593     -1.31100841463161     -0.07627524412030
  N   3.32353501635978     -2.60055901218296     -0.36327405403322
  N   4.43855060941570     -3.37406440919567     -0.32951531951698
  C   5.39897211425771     -2.57122681550981     -0.02430624510789
  N   4.93680931542397     -1.28202701797132      0.14244104635137
  C   5.69766648992801     -0.11696876247441      0.46601920367950
  O   6.89027521016626     -0.22766289068562      0.64383578409462
  C   4.86501769705901      1.04494930267986      0.51943029112182
  C   3.50045550436900      1.00411582498697      0.31660360033601
  C   2.77624122423734      2.29999874170110      0.50150456138190
  O   1.68263392162972      2.41518370864473      0.97514004330567
  C   3.45381098741881      3.58330225106813     -0.00722027447882
  O   3.73636563527778      3.73473419254188     -1.15964727457029
  C   3.69116642086006      4.69888652742384      1.01162909754008
  O   3.80350958717203      4.45569846917647      2.17477766738533
  H   2.42352499259453     -2.99220900510162     -0.58702842806116
  H   6.43627242764482     -2.83140922747754      0.09328440702533
  H   5.36378527637453      1.97531457013044      0.75411338242532
  H   3.82476940660077      5.70302845073476      0.57390420559599
