22
Coordinates from ORCA-job 15894optt
  Br  1.11422899739135      0.37982356385605     -0.05663738244414
  C   2.98383393814445      0.27352419468213      0.08763575774824
  C   3.57883099385480     -0.96262786697723      0.09469765004915
  N   3.11311439631420     -2.22753739307180      0.05264900040346
  N   4.11946945343092     -3.14278194122473      0.07096499911652
  C   5.20451543789819     -2.45206874788100      0.12144385705001
  N   4.93305566747026     -1.09734063331659      0.13223510055938
  C   5.86839279925494     -0.02718269168365      0.20503957643872
  O   7.04754060897660     -0.28842264348954      0.26747995065899
  C   5.21315230968321      1.25214560572680      0.22028248875231
  Br  6.35915828118250      2.70947509982471      0.51453623669697
  C   3.83301269138812      1.40278798490421      0.14664212926894
  N   3.23805831250990      2.66086884832716      0.16170073966120
  C   3.41394404556013      3.64260825834507     -0.79210462883855
  N   4.20803613199485      3.72798132119933     -1.77215578296954
  C   2.43679421933324      4.77732013629532     -0.61876559099342
  O   1.57545158343503      4.76076038756956      0.21438301115502
  H   2.15090971742552     -2.51838096669997      0.01116238781434
  H   6.20848211032538     -2.83712692850477      0.15440026428850
  H   2.34753170313475      2.74269579147507      0.64074392147431
  H   4.83159409860812      2.92754246880999     -1.86417247312751
  H   2.57689250268347      5.59593615183385     -1.34016121276288
