22
Coordinates from ORCA-job 15904optt
  Br  0.87969235801817     -0.19725963775941      0.04060904192008
  C   2.76242458846029      0.01110253346377      0.04147543798774
  C   3.57697256337465     -1.13824670924746      0.04051800670829
  N   3.07977846427712     -2.37225424226758      0.03910489875816
  N   3.75507305270840     -3.49723317252318      0.03813158603822
  C   5.07472986687941     -3.33785093618383      0.03859755647334
  N   5.73632181264341     -2.19475357549664      0.03996362987260
  C   5.03981063288544     -1.05657160054257      0.04103844918723
  C   5.59888730475319      0.22352437920993      0.04256328499615
  N   6.89846607332074      0.57320629095889      0.04328496313865
  C   6.88003558858081      1.90091974831669      0.04467231792531
  O   8.11276258362579      2.50505961217839      0.04560255057772
  C   8.26082968782151      3.83639182850430      0.04656793976255
  O   7.39635378806341      4.65706094102203      0.04701104118207
  C   5.59884578753948      2.48323006576238      0.04500285553290
  C   4.74320197493039      1.37956749006700      0.04355032015697
  C   3.34337880987920      1.25405086337113      0.04296583479137
  H   2.06792079200975     -2.48203493217447      0.03873348430112
  H   5.64536046952793     -4.25712776595514      0.03781280657008
  H   9.33304339016854      4.06144865567080      0.04706035061060
  H   5.35074761405608      3.52808833749805      0.04604764387666
  H   2.71336279647623      2.13568182612689      0.04368599963219
