21
Coordinates from ORCA-job 15908optt
  Br  1.14434947567596     -0.26243295785253     -0.82825148840910
  C   2.93010985775117      0.00980810319207     -0.31177776051456
  C   3.50287435355598      1.23783212909368     -0.12677312083980
  N   4.86872643943167      1.29878471829225      0.05527592241519
  N   5.56229856302519      2.44231734396291     -0.02940180375725
  C   4.90226014731863      3.52486616300745     -0.22686561426913
  N   3.53011777636993      3.63323710783914     -0.20075155116998
  C   2.86033281081027      2.54368526068934     -0.10084024452533
  C   1.40213964516162      2.70850013431001      0.28053901019694
  O   0.95441347299079      2.11455144068882      1.22336153749351
  N   0.72314761648120      3.63832825913117     -0.46305666827219
  C   -0.59984591210767      3.99585801643130     -0.21419615599847
  O   -1.15033763156565      4.85939700656597     -0.83185675448048
  C   5.69142020332775      0.10661864463018      0.27695368872950
  O   6.83448061054314      0.24227440851444      0.58277379053622
  N   5.04092688033834     -1.08259164056018      0.06819833266150
  C   3.77858347134091     -1.11891221123686     -0.21661604372271
  H   5.47043626331375      4.43491567700611     -0.35189019705376
  H   1.22018955299024      4.17175301293206     -1.16458184162029
  H   -1.05927961122175      3.40468901416869      0.58580683407411
  H   3.34265601446847     -2.09947963080605     -0.39104987147389
