23
Coordinates from ORCA-job 15906optt
  Br  1.30864327820173      0.26889297266230      0.02598545043654
  C   3.19349609009673      0.10392480413980      0.02242658767414
  C   3.74757312353061     -1.12406854784729      0.02150473835279
  N   3.08960010269375     -2.34011798217028      0.02226030596465
  N   3.70212843365277     -3.51526637359865      0.02134728594951
  C   4.99230922626538     -3.51364244530219      0.01963840994839
  N   5.79107032879291     -2.38586024203831      0.01864723701143
  C   5.19394564380062     -1.24906730525359      0.01953148660763
  C   5.99495515719291      0.00658703045474      0.01853599846164
  N   7.26007131122853      0.05551006063797      0.01746176698968
  C   5.19270657003198      1.26368010694252      0.01883986763398
  N   5.94426690826541      2.40323326706280      0.01688605488955
  C   5.49407171916687      3.72759835777820      0.01416117170785
  N   4.30319838793792      4.15069435503433      0.01367697563128
  C   6.59824449773804      4.66712042329236      0.01162780723042
  C   7.52070654495218      5.42879228263068      0.00958284794471
  N   3.90624910793062      1.27284504318266      0.02084618898070
  H   2.08021332803831     -2.36746853078282      0.02342367882161
  H   5.48720194196131     -4.47251311613683      0.01890056958827
  H   7.65421537405182     -0.88820378085116      0.01743422834454
  H   6.94393903425671      2.24528674518670      0.01584658777685
  H   3.63983374640405      3.37885175020385      0.01574337869009
  H   8.33036014380875      6.11919112477221      0.00769137536376
