22
Coordinates from ORCA-job 15907optt
  Br  1.15124899285167     -0.25519821088654     -0.32644278503788
  C   3.00730058273943     -0.12551790089632     -0.12975498119935
  C   3.67614952872028      1.05490503553213     -0.12421043823584
  N   5.07108455112018      1.02963541117132     -0.07421674206494
  N   5.83938914473499      2.14273228911778     -0.18016675841687
  C   5.23014581160658      3.25924051735831     -0.30042421002247
  N   3.86187775429434      3.45050111784871     -0.26013037447379
  C   3.12217217569217      2.40972294341882     -0.15980515806364
  C   1.64753980175153      2.71382805271250      0.05931714508838
  O   1.04545063486935      3.43756032059948     -0.67114847922764
  C   5.72828984892418     -0.18289532778066      0.01733814369520
  C   7.23837190372485     -0.15247944814957      0.02551205476936
  C   7.76350314868072      0.09842334804621     -1.31486296789670
  C   8.17853638692755      0.27888856636708     -2.42202621142140
  N   5.12113740816006     -1.30448141889874      0.06902267606104
  C   3.72602497950557     -1.40534923244598     -0.00617933457995
  O   3.16850427201606     -2.47110502633367      0.02815671088138
  H   5.84580242286544      4.14173400095453     -0.40161516948543
  H   1.21493916869222      2.29915075962995      0.98382782814089
  H   7.55521294939863     -1.13479987751039      0.37090198910606
  H   7.60456159617319      0.60891069385262      0.71394493141539
  H   8.55475693655092      0.43459338629243     -3.40503786903180
