24
Coordinates from ORCA-job 15912optt
  Br  1.02735540872999     -0.18100848370885      0.31252456123758
  C   2.87815200574425     -0.01590932718715      0.09507717584237
  C   3.70990319205229     -1.07690934956007      0.06741603245298
  N   3.51841873753799     -2.43877796154418      0.20061559271821
  N   4.69800316880852     -3.09081712992026      0.00833439174180
  C   5.63987819731309     -2.21117796089338     -0.12478593672396
  N   6.94319892243703     -2.61024906188290     -0.38812009799966
  C   8.04418548496979     -2.14296654914265      0.29852950465540
  N   8.03200939702926     -1.11430367587776      1.11875308467646
  N   9.33023958098440     -1.05173125527195      1.49791283662366
  C   10.03143654480614     -2.02655623990971      0.91462945450674
  N   9.25199143339003     -2.74495252181081      0.13969488532647
  C   5.11329276108911     -0.85259766825934     -0.10559704777229
  C   5.63301685526911      0.39247469001128     -0.24975087879373
  C   4.75340272531895      1.54330352856724     -0.23988969535049
  N   5.03282380819843      2.78789542070240     -0.37084151158167
  N   3.39568527797734      1.22923788585724     -0.05692188663856
  H   2.67980090489723     -2.92280338142136     -0.07405539688906
  H   7.03527296088472     -3.57261370332312     -0.67979712591200
  H   9.63224374166331     -0.34442444286229      2.14534197252741
  H   11.08656457855482     -2.17770262720196      1.07542412365312
  H   6.69380118436700      0.55888301040379     -0.35849085906853
  H   6.03036662441440      2.91890055171540     -0.49671221768665
  H   2.77995650356268      2.03080625252040     -0.04929096154559
