22
Coordinates from ORCA-job 15914optt
  Br  1.62894914161182     -1.82260219328061     -0.75402747000871
  C   3.23551943171961     -1.09246397947298     -0.11000058606820
  C   3.88671484835443     -1.39429014995604      1.03912466963873
  N   4.92916989600693     -0.51481530700928      1.38910314599993
  N   6.08113687410169     -0.82765787528736      0.53599360856121
  C   5.65119702925771     -1.06085008529093     -0.64484316193385
  N   6.32124989298687     -2.12449277851366     -1.29410763594903
  C   5.50218716850012     -3.10964181998588     -1.21983181216406
  C   5.88705846716094     -4.43901765253897     -0.81515620216493
  C   5.15014861932441     -4.98491572340813      0.18200944986808
  N   3.86133812874781     -4.61723666143762      0.58943941965622
  C   3.29793743930991     -3.69061154967534      1.19464037749683
  O   3.88603824572442     -2.53675922420218      1.74725185547107
  C   5.62869860000065     -6.14233130065046      0.87613547588752
  C   6.03589786934697     -7.09474032496277      1.47709250687264
  C   4.23096421326713     -0.63720233323755     -1.11566583557188
  O   4.02381505658140     -0.23633848786082     -2.22279012552142
  H   4.64303198860176      0.45401774255138      1.29426922468655
  H   4.42577586201771     -2.95234945788427     -1.12345214911386
  H   6.85592124242992     -4.85670325850264     -1.04453396750579
  H   2.23548667439259     -3.73753129927386      1.40763788226593
  H   6.39976331055514     -7.94446628011999      2.00471132959703
