25
Coordinates from ORCA-job 15913optt
  Br  1.22006060580837     -2.65957173757326      0.16445227646009
  C   2.96692757808213     -1.97907086262687      0.11785295428376
  C   3.77415033087137     -2.10230787599266      1.19739639837293
  N   5.04636218906937     -1.61566494544033      1.11769834046917
  N   5.68400988151028     -1.41671668684563     -0.04687934210683
  C   4.98790124548314     -1.47009062592994     -1.12406750975477
  N   5.69175320002475     -1.61729855918673     -2.34162606325752
  C   6.34759374973421     -2.69895515741301     -2.46272407715587
  C   6.40536542498650     -3.72360121237840     -1.37325863285451
  C   5.34441720561425     -4.42192014790935     -0.96615217035477
  C   5.18708203851495     -4.67273521859142      0.46849202398425
  N   4.00998222051153     -4.65817301283170      0.93662482704804
  C   3.68133455798573     -4.28427485911253      2.24193403835272
  N   3.40278953902952     -5.01007606389321      3.23504625260979
  N   3.53903035920865     -2.87420634594242      2.35115877262845
  C   3.50699509748321     -1.53585426213761     -1.16873000364363
  N   2.89691086724398     -1.37336950007417     -2.27214433406772
  H   5.64382051335352     -1.71400247596151      1.92289135945709
  H   6.93022949898967     -2.83751860018403     -3.37165949363386
  H   7.29452027237924     -3.68661008853719     -0.74799098437940
  H   4.42564570400952     -4.43900875541785     -1.54425842535774
  H   6.08219991917802     -4.61498476812188      1.09845986484245
  H   3.51131078464641     -5.99327899511527      3.00428019747409
  H   2.79715887130875     -2.59994586531248      2.98000442179545
  H   1.89144834497285     -1.49076337747053     -2.15280069121165
