26
Coordinates from ORCA-job 15916optt
  Br  1.87604219280155     -2.12821560796735     -1.21401199960704
  C   3.47518515530968     -1.47564390303911     -0.47512178806365
  C   3.77304302718090     -1.71391924644325      0.84054979538385
  N   4.96035071032640     -1.31903873252993      1.33342148663703
  N   6.05984385777923     -1.23713382808699      0.56671011911124
  C   5.87087856136991     -1.34047572889326     -0.70826723640244
  N   6.89971162647484     -1.84705362651344     -1.46192658054309
  C   7.49718701466905     -3.05611718653183     -0.89493211652053
  C   6.54835511406759     -4.27912045453028     -0.80036832585061
  N   5.26709391210367     -4.09101015335631     -0.12957857143200
  C   5.08690798897360     -4.06998027420953      1.22679621177886
  N   5.95776612633561     -4.12702520083697      2.14681067554713
  C   3.62046954169595     -3.92273624131328      1.68684501175821
  O   2.96756001963997     -4.85814931665012      2.04232193624622
  N   3.09927216829238     -2.61281695056673      1.68038412896477
  C   4.55391136511144     -1.17600807817858     -1.38426974038939
  O   4.47636300883284     -1.05857395037196     -2.59286504475492
  H   5.16190605812420     -1.53331675588008      2.30116937456654
  H   6.66014794823098     -1.88318927756115     -2.44507735264754
  H   7.89052242894278     -2.80059537170890      0.08611483275300
  H   8.34191803692934     -3.35182956955459     -1.51729825393914
  H   7.09937117958520     -5.09130033605047     -0.31393828854554
  H   6.31278174695364     -4.61545655698232     -1.81002910257252
  H   4.43998309950907     -4.16770401396509     -0.70148684430206
  H   6.90354061178798     -4.23504552812129      1.78412265651479
  H   2.08688749897211     -2.58854411015717      1.70392501630885
