22
Coordinates from ORCA-job 15929optt
  Br  1.25990991298813      0.16060135561927      0.11296123876548
  C   3.07276709264696     -0.09157601103409     -0.13017134590291
  C   3.70697412752288     -1.25368979695994     -0.18419440847271
  N   5.12259108379252     -1.21792386163734     -0.33291214844757
  N   5.78750755094982     -0.10065191320188      0.14060527386647
  C   5.10617941333066      0.96055460170059      0.15526630900082
  O   3.79589570885382      1.08042211431194     -0.22155090446102
  C   5.59523317092744     -2.50496333260406     -0.06351450844682
  C   4.58169662092625     -3.38336771693424      0.07098961139798
  C   3.30746435305218     -2.66728506844088     -0.01136290845917
  N   2.09908845458830     -3.06301310259563      0.02279757404323
  C   7.01997549074512     -2.78800053431850     -0.02898005406325
  N   7.49627746950114     -3.98734328859797      0.07295616099141
  N   8.84094344445012     -3.81921473320599      0.06056417927949
  C   9.24290452763582     -2.50572480309736     -0.04406505588395
  O   10.35733733191166     -2.04520280483333     -0.06712611056079
  N   8.01935448041319     -1.85428524627383     -0.11414273499559
  H   5.54183300620630      1.89558669010540      0.47435589733072
  H   4.69736015878140     -4.44909858336932      0.18025773093897
  H   2.05539827613416     -4.07493379728124      0.13314872085474
  H   9.45639583099446     -4.60985409261343      0.13660773380464
  H   7.88991249364759     -0.85503607473814     -0.11449025058015
