24
Coordinates from ORCA-job 15920optt
  Br  1.07412071339213     -0.35784340260415      0.30267033084863
  C   2.94578491159311     -0.19036610347913      0.13288090934235
  C   3.70861958495209     -1.31961032762331      0.07530699563650
  N   3.43510307582549     -2.64083834769682      0.09575532833541
  N   4.56802297541923     -3.39817611059698      0.03620932160200
  C   5.54349973402083     -2.55300619569325     -0.06616937903671
  N   6.88104523992635     -2.84001455323408     -0.16205169515631
  C   7.18831263195685     -3.98768289563746     -0.63836473492516
  N   8.46229472123661     -4.41101924647965     -0.68768568606207
  C   8.86183713250688     -5.67671596883687     -1.24736361354339
  C   9.35392104488679     -6.62257769713361     -0.23151217076028
  N   9.75214199512154     -7.35433722087413      0.55348670672543
  N   5.07800012978560     -1.23993036494304     -0.03785299732066
  C   5.76131055250758      0.00897650666164     -0.09960121969195
  N   7.01712436929163      0.17092439449077     -0.19186061950792
  C   4.81833605628155      1.12243905260931     -0.03554729822048
  N   3.53358917731606      1.01158774411502      0.07451254481885
  H   2.53763727152140     -3.05977742801896      0.26737200684361
  H   6.44652087258306     -4.68246513002022     -1.03792591805294
  H   9.16223481656158     -3.81801606647843     -0.26459636616027
  H   9.64518962673190     -5.54150436280245     -1.99506846230868
  H   8.00621526645742     -6.12616951756472     -1.75136567708825
  H   7.51790657203314     -0.71180826017685     -0.20748342643765
  H   5.25923152809095      2.10993150201750     -0.08274487988008
