21
Coordinates from ORCA-job 15927optt
  Br  1.58123486746085      0.55494418298706     -0.32752052720148
  C   3.35970179441060      0.06728355249339     -0.30676081180256
  C   3.81346073341785     -1.16927076863161     -0.13599514397737
  N   5.21495760440752     -1.36259613354157     -0.12876918846752
  N   6.08729341196339     -0.32988192825788     -0.27043836210484
  C   5.56386382323414      0.80584045745735     -0.43350661754267
  O   4.21901245147982      1.10968259422419     -0.47806283880279
  C   5.49923761148504     -2.66403978141394      0.06266472632022
  C   4.34021839253677     -3.41170954391913      0.17455012128262
  C   4.22994415644878     -4.81667283977519      0.36239100284228
  C   5.20854377474466     -5.73154229570832      0.17062307456025
  C   6.51543669986671     -5.43461922095294     -0.36532692999506
  N   7.20253932795245     -4.35248799926332     -0.33820539034696
  C   6.86928358858756     -3.19087783645443      0.32914161748324
  O   7.61965573549425     -2.60655761642173      1.06233287075892
  C   3.18669121341366     -2.50150952652482      0.08798535484202
  O   2.00558139464657     -2.75022834942504      0.16250201408654
  H   6.17862319999569      1.68334004731385     -0.55789508547864
  H   3.23471274167641     -5.16360696843210      0.62035695123289
  H   4.96697157033346     -6.78100419148008      0.27721833018809
  H   6.98903590644375     -6.25948583427371     -0.89828516787718
