21
Coordinates from ORCA-job 15931optt
  Br  1.16317862004449     -0.63067792448957      0.23901302016802
  C   2.91445336434367     -0.25335184849074     -0.19813851299996
  C   3.52322728149046      0.91984350612903     -0.12351759613914
  N   4.90014133530515      0.97027533547365     -0.42117966825572
  N   5.65627679782058     -0.17102606914711     -0.25164780321710
  C   4.99672249543610     -1.24177337722275     -0.33711239545120
  O   3.65141102044219     -1.33716990380109     -0.62017134496458
  C   5.63075236650552     -2.56932764208273     -0.07097609579887
  C   5.08709185041397     -3.11798245381419      1.26059864468288
  O   4.41193784085668     -2.46587675169621      1.99541841796848
  C   5.40814846263598     -3.54825136331477     -1.13188161077165
  C   5.21626287348954     -4.38712438645370     -1.96236973252449
  C   5.41218117251055      2.21125245535754     -0.06586258532359
  O   6.53500935298141      2.57532333901300     -0.02770282024549
  O   4.32815609435697      3.00818489471629      0.23461811663209
  C   3.15028577763823      2.27956510381800      0.26253067289044
  N   2.02073636268346      2.73214306289673      0.54047914660661
  H   6.70448299185691     -2.40294673734901      0.05998168411784
  H   5.37242026095192     -4.16091359841523      1.47930801185624
  H   5.04686776923345     -5.12354293585132     -2.71231518147592
  H   2.05925590900272      3.72637729472420      0.75992763224510
