21
Coordinates from ORCA-job 15934optt
  Br  8.79901163569864     -1.32559387203652     -1.39466012718797
  C   7.51670629303759     -1.99826478862021     -0.23049146416320
  C   7.22978558233050     -3.27449672117673      0.00757342737726
  N   6.10091361638426     -3.47874387939551      0.86136693507155
  N   6.15206470805749     -2.70511253273012      1.99275537367949
  C   6.65456813206186     -1.54404318216778      1.78829137184810
  O   6.81374965705015     -1.06285548428896      0.50938577604997
  C   7.68915574430932     -1.34353992047189      2.81550610101794
  N   8.86593864040387     -1.22479751215672      2.31434010454771
  C   9.57357590154922     -2.39561713516802      2.59414255837398
  C   9.97324404795742     -3.04452546079597      1.47760229279900
  C   9.73485319452350     -4.47277533052772      1.33707421923824
  O   9.91300509880893     -5.36503036241444      2.12329820018983
  C   8.95249161337145     -4.88075871982879      0.03610954354992
  N   7.87809343856708     -4.42364752262874     -0.46639236760477
  C   9.49401003972735     -6.08413880767908     -0.57227135585430
  N   9.98367043260507     -6.99681807457198     -1.06134515528977
  H   5.93885640694457     -4.44597512268081      1.10830750301826
  H   7.46424086048660     -1.81250390891974      3.77769560420615
  H   9.44977043700321     -2.90617062532502      3.54999070895599
  H   9.99129451912182     -2.47359103641521      0.56372075017662
