23
Coordinates from ORCA-job 15947optt
  Br  1.66670591509535     -2.80670820189139     -0.80525969053540
  C   3.16514336318989     -2.03703706595419     -0.00670319524373
  C   3.64797565569803     -2.32915903302655      1.22757160124268
  N   4.67912226632870     -1.39945399007082      1.59971934623986
  N   5.73535113428465     -1.55794208121017      0.67295900634366
  C   5.33684382826472     -1.62363349607747     -0.51868341024782
  O   3.99572371622107     -1.36404804218103     -0.85334556052549
  N   6.22220517509473     -2.22400634823894     -1.44275226004820
  C   6.07641944657424     -3.49842190862092     -1.47892183266225
  C   7.24975097152950     -4.42567580422014     -1.48986532845785
  C   6.92017694307660     -5.42906014739031     -0.66889652808185
  C   5.47247543246627     -5.32014915158246     -0.28413860956303
  C   4.94751844510035     -4.26870065746567     -0.92849803791353
  N   4.85073548641405     -6.25616052897677      0.54220339754109
  C   3.85291633390387     -5.99678673690695      1.29257704153289
  C   3.14182577058147     -4.68604257141024      1.43950955075049
  N   3.79585893751644     -3.62309753091455      1.64906584108075
  H   5.06365405209359     -1.65190699048262      2.50165920722935
  H   8.22310360273912     -4.16729202850674     -1.87389966899678
  H   7.57067764068630     -6.20539915091973     -0.29408010045132
  H   3.91691107200133     -3.98615811898975     -0.97276172049763
  H   3.39694041016143     -6.85037169686239      1.79398335731110
  H   2.06896440097821     -4.71978871810016      1.22655759395299
