19
Coordinates from ORCA-job 15944optt
  Br  1.09002703785235      0.44521902070424      0.25416853935893
  C   2.90490463569529      0.10067382755424      0.15215651755842
  C   3.52578441998267     -1.08705160170510      0.04027286851489
  N   4.95182581007884     -1.07421143246321      0.01077379756144
  N   5.61999416138256      0.11380676178107     -0.06435005813990
  C   4.94953873154203      1.17561304195638      0.02815611154892
  O   3.59973653936580      1.26935893602696      0.21772991391432
  C   5.66669968292146      2.48430265787905     -0.06409886844745
  O   5.09666565473813      3.53089130220562     -0.00696892941090
  C   5.74241629265887     -2.21185836015712      0.01941624523445
  O   6.94005305177379     -2.17650518268949      0.01063825444327
  C   4.97474365779187     -3.51669657665814      0.03951216988207
  N   5.58298768684981     -4.61668063010644      0.11357668274251
  N   3.57846459223778     -3.51544276698156     -0.04956452095957
  C   2.92809548607765     -2.41700646835914     -0.04974525029301
  C   1.49204373370793     -2.58230536980827     -0.17615873541113
  N   0.37264192395819     -2.79409638039979     -0.29060101101303
  H   6.75398328803272      2.37113331609991     -0.18779489399605
  H   6.58939361335222     -4.43514409487920      0.16188116691182
