22
Coordinates from ORCA-job 15949optt
  Br  0.97656235676492     -0.00771280078549      0.27048369478915
  C   2.83046830496775      0.08767917509083      0.01861248871251
  C   3.52053848696956      1.24068282402333     -0.11883378702527
  N   4.96136750943643      1.20293800111137     -0.26497053690709
  N   5.73293438969991      2.25332579201533      0.15637586326293
  C   5.15088669482030      3.36878765664804      0.25216978199385
  O   3.85136829257454      3.62574447015160     -0.02576351302982
  C   2.95216016911743      2.58807533356027     -0.23524334013665
  N   1.75714916862160      2.85561758766124     -0.49372935642984
  C   5.53138062967501     -0.03349429025153     -0.15985870225443
  C   4.82507310674517     -1.17677305200327     -0.07634516585826
  N   3.40869968506457     -1.16222085264311     -0.04749429404711
  C   5.74918358093525     -2.27928954524596     -0.11391214925216
  N   5.63111653571156     -3.54168399271006     -0.09645416650810
  C   7.14225848185069     -1.61071219010241     -0.16689216180816
  O   8.21830470044216     -2.12097713989865     -0.15855034765398
  N   6.88832880915620     -0.23732373349318     -0.22636175217607
  H   5.70449185495322      4.24785937087658      0.54587919019804
  H   1.60335176489938      3.86283821265015     -0.49287621089212
  H   2.95579965166742     -1.86278388557130      0.52501061847072
  H   4.65130020171814     -3.82676990859933     -0.07436524639282
  H   7.57927562420870      0.49319296751555     -0.18088090705534
