22
Coordinates from ORCA-job 15957optt
  Br  1.21161733084510     -0.05694237323733      0.13500502471294
  C   3.07722451100419     -0.10423989152005      0.03278523492039
  C   3.70837190731666     -1.29838281356519     -0.07730863822819
  N   3.28678881997502     -2.57933498962012     -0.14824515055206
  N   4.33191127470778     -3.46647174909524     -0.25129084904118
  C   5.38117947898380     -2.73662637187612     -0.25227099227000
  O   6.65131816839672     -3.11001645330755     -0.33266524786396
  C   6.95118895689049     -4.47422588300422     -0.19531834301828
  N   8.06911031242773     -4.85775783059002      0.17621399030584
  N   5.08823961891821     -1.38108936978142     -0.14780125473632
  C   5.83489031270424     -0.20784588350445     -0.09151878650276
  C   7.34131349004251     -0.30639754660000     -0.17906146702859
  C   7.95235250305169     -0.98225249937697      0.96512122947270
  N   8.44316559683318     -1.52637728303214      1.84516596704175
  N   5.28296327055034      0.92871950457373      0.00307316330739
  C   3.86294104101955      1.11165970168455      0.06563531603757
  O   3.40652080506563      2.22326670498958      0.14004558607167
  H   2.33702464509562     -2.90404938150026     -0.09858291091468
  H   6.12547746985963     -5.12500399396563     -0.46166813346691
  H   8.69317082575295     -4.08447338465625      0.41406232469715
  H   7.70846304186662      0.71657580297696     -0.23173880652973
  H   7.63976661869226     -0.83773401599185     -1.08463725641472
