20
Coordinates from ORCA-job 15961optt
  Br  1.65002859749904      0.84388445064529      0.98478549763168
  C   3.40880182083189      0.38009415191131      0.55502010903537
  C   4.32828328093549      1.30581860961250      0.22177233037941
  N   5.66779005917952      0.99393555646389     -0.03471806035739
  N   6.69069837784629      1.89981532778411     -0.03753716260084
  C   6.61536989951651      2.98073849387727      0.60558374995879
  O   5.52966532554292      3.40788591694527      1.32619148380090
  N   4.48240877554235      3.75595561523038      0.44884755022660
  C   3.93511738303030      2.72091301283885     -0.04068306999312
  C   2.90006687633172      2.96928815449526     -1.01798368518166
  N   2.12795730112381      3.14469361881057     -1.84527449384229
  C   6.08681855408615     -0.33353981914588     -0.29897142367327
  N   7.23102670807233     -0.65832138505505     -0.70156335901068
  C   5.07568125356959     -1.41915033370290     -0.02015252575185
  N   5.30673349992875     -2.62477498659712     -0.29075710881238
  C   3.74267719668477     -1.06030561908069      0.60710980399194
  O   3.00529094075269     -1.88789097993728      1.05755714598690
  H   7.47629236549021      3.63648961186037      0.62916571781406
  H   7.83793283375646      0.14786684802097     -0.83538662451796
  H   6.23935895027911     -2.70439624497713     -0.71100587508421
