18
Coordinates from ORCA-job 15966optt
  Br  1.02379640387738      0.05488064494091     -0.37785901775615
  C   2.87666697701445     -0.15982441072805     -0.40832994126235
  C   3.54508714046890     -1.26404944319769     -0.04526161398692
  N   4.96739771971651     -1.26579437493509     -0.10104665311610
  N   5.67949819525426     -0.14370429586975      0.24779051695275
  C   5.20552877410415      0.98189467591221     -0.07487009892439
  S   3.71680080538394      1.26431812204909     -0.99749533898428
  C   5.92364854545625      2.16680579074989      0.30923379145036
  N   6.45056430568569      3.15034225449341      0.56884156065851
  C   5.75117745266175     -2.42427858175870     -0.10410742704159
  O   6.94629133271562     -2.39368368719384     -0.10362416164065
  C   4.98836933551513     -3.70695191793279     -0.08714364295195
  C   3.68231249560831     -3.76368197044859      0.17934674034647
  C   2.88130668587601     -2.53596682854780      0.36561754526420
  O   1.74531135536531     -2.59899580890994      0.75889885638562
  C   5.76527136387948     -4.89513535561126     -0.28103252528801
  N   6.35778032238357     -5.86210931320626     -0.44300014389107
  H   3.15019078903326     -4.70106549980575      0.27904155378556
