23
Coordinates from ORCA-job 15964optt
  Br  0.78106777299378     -0.18008821195167      0.23246522559319
  C   2.62379547094382     -0.11539356745259     -0.06148662673324
  C   3.41401881147414     -1.17811458226484     -0.04768575803252
  N   4.80923141589079     -1.05841940774796     -0.25972786647112
  N   5.52035250982436      0.03392965645510      0.16697370208897
  C   4.94028446415810      1.15716915593616      0.16035498809384
  S   3.28261900109058      1.49617924947359     -0.34924224476497
  C   5.38430654148067     -2.32066212074781     -0.05666065263880
  N   6.72307762503246     -2.37398000411310     -0.08005864545407
  C   7.51045617364034     -3.51685331003903     -0.02227221790160
  C   7.19284594865297     -4.83468973182671     -0.21567277686151
  N   8.39132248469481     -5.49468016946527     -0.06669452900501
  C   9.34195336084696     -4.57253731684759      0.19400932688799
  N   8.84187143371386     -3.36414004907721      0.22930205335162
  C   4.42849436259510     -3.28055903979918      0.12210603106227
  C   3.13211262891101     -2.64769345683584      0.16011419554128
  O   2.03136441508671     -3.13354742833574      0.29626956833443
  H   5.50710201227107      2.01756055997406      0.49386635842241
  H   7.21937140561117     -1.49282167155578     -0.06029047213718
  H   6.28463905536789     -5.34691912335225     -0.46689890653672
  H   8.52740213562225     -6.48829124808477     -0.13539054528917
  H   10.37623193724081     -4.82877012527938      0.35395548813964
  H   4.57907903285630     -4.33467805706215      0.25466430431027
