19
Coordinates from ORCA-job 15968optt
  Br  1.22884255256933     -0.25200498014619     -0.78052239435563
  C   3.07216169651985     -0.01524260116136     -0.52891273062937
  C   3.68120529536985      1.14252248402388     -0.22073309446429
  N   5.09258504674952      1.09975392793200     -0.04784212890217
  N   5.62758444142717      0.08878262133594      0.74851315451938
  C   5.19836587232005     -1.07755445603539      0.54312007069340
  S   4.00280511008687     -1.49039259820489     -0.69027214418055
  C   5.97896395649486      2.17360370074995     -0.23201624887441
  N   7.21771295715008      2.14801571409604     -0.01990654490805
  S   5.33067355221051      3.67532858915892     -0.91022865009769
  C   3.71217439875241      3.57844805368150     -0.28427295533795
  C   3.04834220261693      2.44424574341975     -0.00222698511563
  S   1.43801965783843      2.64348936727589      0.72833317270641
  C   1.59799546769304      4.42542804987978      0.66437072320502
  O   0.79609259769948      5.20307963228773      1.05669154544163
  C   2.96096691497771      4.80381128805171      0.01019536223375
  O   3.28009823617200      5.93541302967110     -0.19147689355081
  H   5.57423510657496     -1.88498316115119      1.16009190147737
  H   7.53017493677692      1.23525559513479      0.30509484013959
