24
Coordinates from ORCA-job 15977optt
  Br  1.83118814645358     -2.27753906619041     -1.62245805016254
  C   3.45107511625897     -1.62080328363625     -0.93390011695847
  C   3.71327484678698     -1.61071545675947      0.38580813250104
  N   4.95506990488979     -1.19757197118838      0.80967903177267
  N   6.05107795191879     -1.36902363141844      0.03302565750592
  C   5.84635149348989     -1.54793932042024     -1.21828229088483
  S   6.92341036205910     -2.76474767944558     -2.00549772695235
  C   5.72693006212355     -3.99830898332989     -1.50452646073907
  C   5.50608275603080     -4.11533082211273     -0.19958292763831
  O   4.27567063338260     -4.43571836742695      0.31095748962781
  C   4.13267829325145     -4.28992037349631      1.66991249196476
  N   4.74329675516139     -4.94883600697731      2.54788081429366
  N   3.16560570512303     -3.36149873211028      2.02456204481393
  C   2.80802817688231     -2.13940525137774      1.45336693651730
  N   1.80950811465937     -1.52848831746285      1.92751167892597
  C   4.53059161326859     -1.29439833299893     -1.87304550862901
  N   4.45930145486948     -0.97651554362571     -3.09578414313386
  H   5.16385743607667     -1.17623573343717      1.79591973575922
  H   4.99736152007421     -4.31620854935836     -2.23892216992224
  H   6.22688436915029     -3.77496652931075      0.53618397326130
  H   5.31422412514606     -5.68214390229571      2.13515444409816
  H   2.76380405605731     -3.51609191080489      2.93957265309757
  H   1.67456418609408     -0.63325888297803      1.46543974030455
  H   3.48816292079165     -0.88933335183757     -3.39697542942317
