30
Coordinates from ORCA-job 15972optt
  Br  2.34848828293527     -1.58132683666356      1.43429046986998
  C   3.69886810207364     -0.44896371374712      0.78127019575019
  C   3.84613649327112      0.84832203395769      1.11829901044136
  N   4.83381636958468      1.63679071946273      0.56808638434539
  N   5.90644909352678      1.21458088083812     -0.09715595122472
  C   5.97110695736201      0.01390880722519     -0.51872240840000
  S   4.68632575539031     -1.18556343705584     -0.45385983840950
  O   5.22122611723262     -2.43021896215186      0.01748994688267
  O   4.00821018402788     -1.16971511580001     -1.71929758552812
  C   4.82515349675331      2.99183862991441      1.05681189161157
  C   5.17170279512162      3.14272131047414      2.50206563673577
  C   3.73574242171793      3.04167425080969      2.06559043477241
  C   3.03504724969806      1.67621552189539      2.10653769543738
  C   1.53646956209515      1.80976096125883      1.69642613806100
  C   0.72331557283813      1.59521637444148      2.98690662539751
  C   1.73429660005837      1.78181977659126      4.11987262876399
  C   2.99239632777122      1.12940500640909      3.55104941840640
  H   6.86755339439622     -0.31315262430846     -1.03237915741485
  H   5.02372447875268      3.75062320975631      0.31547924990130
  H   5.51976188509391      4.11024159897693      2.83405457789114
  H   5.63426188583932      2.29203686035344      2.98535931083602
  H   3.11674703835446      3.92272782294018      2.14966634781148
  H   1.27176252779799      1.08232955010286      0.93115616747226
  H   1.36377802108650      2.79824240223877      1.26985217916218
  H   0.34471157707126      0.57163891644225      3.01219113344813
  H   -0.13218597456724      2.26540623744746      3.05784579550885
  H   1.41363252359851      1.33402441509711      5.05974333039577
  H   1.91473690170993      2.84483906774451      4.30236225295826
  H   2.87349503493321      0.04709597459047      3.55340825190697
  H   3.90026932447507      1.37048036075853      4.10159986720920
