20
Coordinates from ORCA-job 15975optt
  Br  1.24564141793793     -0.17150079659565     -0.48251594348538
  C   3.08236303862374      0.03565268699502     -0.22433730032996
  C   3.72134110702231      1.23649929249817     -0.15833482249444
  N   5.09884733051317      1.28083991149205      0.08180542513125
  N   5.80736062371552      2.34556082102361      0.56930645464291
  C   5.29337223000686      3.49335033492501      0.69774832919140
  S   3.70585757954292      4.03487770470999      0.25271652541886
  C   3.01641176440884      2.53308830649722     -0.41851458530282
  O   2.00216936549293      2.62717593679633     -1.03617571208231
  C   5.82566773232105      0.11252669733517      0.11193169147293
  C   5.25019454690703     -1.09757084589704      0.03367165650345
  C   3.81030417466468     -1.25179245139551     -0.07151867570419
  O   3.25544700290099     -2.32770054160862     -0.06962655389527
  C   7.33107791805970      0.21038257739799      0.16656684658367
  O   7.96674047526186     -0.49693460238611      0.89738485467177
  C   7.95806926765051      1.08490959893897     -0.81244479547416
  C   8.48772108841375      1.73870066143199     -1.66402538117237
  H   5.93654594498279      4.26003142702497      1.11368993152641
  H   5.86335285791317     -1.98741111585103      0.05528055989917
  H   8.96451453366018      2.31831439666746     -2.41960850510092
