24
Coordinates from ORCA-job 15981optt
  Br  1.30527039760598     -0.10044750680165      0.36929996735535
  C   3.14543692875635     -0.11403072092627      0.07911519332455
  C   3.91891912160645      1.00203212538997      0.04334965872033
  N   3.59283739574854      2.34608948534464      0.14800451492035
  N   4.62691028754204      3.02805845822834     -0.04484264070582
  N   5.71214530185695      2.20258153071934     -0.24630296346428
  C   5.30957326041866      0.88847761296620     -0.21990959132200
  C   5.94609920746599     -0.30712237981275     -0.42117984212603
  N   7.29249363806566     -0.46118027870980     -0.76380997124100
  C   8.29598623490444     -0.17549857090345      0.25818462796905
  C   8.12427214521168      1.21254872727478      0.86037662972509
  N   8.05282469643530      2.26852756718488     -0.12541438791465
  C   6.94545578653400      2.80553934509287     -0.68294236166829
  O   6.93269020902379      3.72300013807543     -1.45289288977334
  C   5.12842868332850     -1.49853318955572     -0.38327989507893
  O   5.54243466853317     -2.63158180086480     -0.57554335069745
  N   3.75789569368416     -1.29717700159357     -0.12904727135306
  H   7.41920785541966     -1.39951575283457     -1.12834831987746
  H   9.27367127404334     -0.24882095260578     -0.22120001242585
  H   8.26722479564070     -0.90145219404512      1.08024700805737
  H   8.96655233295533      1.41665029350872      1.52193196629478
  H   7.22850156312369      1.25289045020496      1.47869860048010
  H   8.90736704510645      2.61566952731498     -0.53289259849401
  H   3.21380147698906     -2.15070491265165     -0.10960207070479
