22
Coordinates from ORCA-job 15980optt
  Br  1.96701003229878     -0.42792526909704      0.10181128344238
  C   2.91235970615140     -2.05327191754771      0.32315994285706
  C   3.76225922487145     -2.17168380059398      1.37281387713675
  N   4.61714171434906     -1.10341217915218      1.58650462153138
  N   5.48467832871942     -1.11850713432243      0.46302148098621
  C   5.13589209356113     -1.64744412509957     -0.63701435502435
  S   6.34047591115854     -1.82874205794842     -1.92999060088922
  C   6.49662030919177     -3.65292956006189     -1.83709902994466
  O   6.92073415638138     -4.25071344424145     -2.77571771978752
  C   6.02775634132167     -4.20592026484921     -0.54477045849008
  C   5.03591393292097     -5.09332800437872     -0.54164444208612
  N   4.23396787309237     -5.42332363938989      0.55409898025496
  C   3.70472812464675     -4.56073117324440      1.50681633672720
  N   2.76499676649154     -4.76800091747195      2.30835845177585
  O   4.39525290942914     -3.37122893341829      1.57037326321174
  C   3.72078853998741     -2.31119982899571     -0.92835619214285
  O   3.42599995546489     -2.74725704479329     -1.98632852974349
  H   5.19514393656077     -1.09297016426641      2.41770864615360
  H   6.33904596663141     -3.69696323745220      0.35298868897106
  H   4.74356856418083     -5.58115357857423     -1.46563337854598
  H   3.69839242988909     -6.27148964804642      0.45560395178318
  H   2.32527318270015     -5.67480407705453      2.18529518182293
