21
Coordinates from ORCA-job 15989optt
  Br  1.08668740539229      0.06146069427264     -0.06592142923069
  C   2.95769207808817      0.12728153524048     -0.06777741892823
  C   3.62773793345999      1.31144885747668     -0.06908867848739
  N   2.96587475747254      2.55845548489518     -0.06954060934534
  N   3.58555377060004      3.62797394760589     -0.07045531451587
  N   4.96396367178741      3.64200697992461     -0.07100826062697
  C   5.55282311752743      4.89416878961886     -0.07182778059753
  O   4.96439758779372      5.94366314692976     -0.07200243306505
  C   7.04910287669516      4.84278023559429     -0.07230338134721
  N   7.78653391573168      3.80987624658048     -0.07201154433085
  C   7.17951398271809      2.53483118438278     -0.07122694405309
  N   7.89965290944356      1.46957268143291     -0.07064642994546
  C   5.74423179713984      2.45562398771860     -0.07079275226250
  C   5.05096602086857      1.28539429537995     -0.06988866607262
  N   5.64097321313100      0.04945619738203     -0.06957401087841
  C   4.87880698048360     -1.07104230273080     -0.06858932158286
  N   3.59157523101449     -1.08593934168881     -0.06768295921587
  H   7.51137473425679      5.82691965136498     -0.07296136336008
  H   8.88478717671974      1.72187356170976     -0.07094430791997
  H   6.67099268349667      0.05987423825447     -0.07014109536446
  H   5.42375815617920     -2.00768007134477     -0.06861529886954
