24
Coordinates from ORCA-job 15992optt
  Br  2.00221532937479     -0.86022249808284     -3.15678014363218
  C   2.93208113962389     -0.66138128663850     -1.53804770329178
  C   3.06626618115285      0.53546854117941     -0.92601212546845
  N   3.90522409949671      0.59624201481320      0.18933817604040
  N   4.92141810837292     -0.29420467810901      0.33975753025267
  N   4.70803132138306     -1.43242649604783     -0.08235540956425
  C   3.40509804115202     -1.73983531142797     -0.62296923675375
  C   2.46804665682198     -2.27364347852352      0.19773483426922
  C   1.09625416410412     -2.74707375317002     -0.21465874488831
  N   0.27116434602531     -1.96465625824304      0.72767771378322
  C   1.19040563329785     -1.26622526847600      1.47841306538347
  N   2.40287757506773     -1.73019449310996      1.50904679825859
  N   1.12207318162345      0.14633686389275      1.66093726444201
  C   0.88076491679398      0.68566744234141      0.53127159185114
  C   1.45288399054969      1.98626966101668      0.05201398217658
  N   1.29746096646075      3.16530526900821      0.46467738436852
  N   2.27365803985751      1.70888192952522     -1.07914286316533
  H   4.12263782945385      1.51123643878768      0.55682840672282
  H   0.98930834140448     -3.82007938010851     -0.04413103368937
  H   0.85746866863764     -2.52804973250820     -1.25492915943067
  H   -0.54193485598022     -1.48403101891158      0.37567741597532
  H   0.51541765791578      0.10399884395944     -0.32051374274694
  H   0.63613558620774      3.19818607194061      1.23707311328048
  H   2.74804308120207      2.54643057689238     -1.40090711417342
