22
Coordinates from ORCA-job 15997optt
  Br  1.66556237446832      0.05567719612585     -2.57624139262509
  C   3.04020123064657      0.06186642633208     -1.31616884893848
  C   3.44159345082380      1.15586969962214     -0.64237763898416
  N   4.62024239645506      1.02982589073714      0.07608084359775
  N   5.53578886099866      0.06194319946037     -0.27612648336720
  N   5.09076177828292     -1.00841412460146     -0.71032407922802
  C   3.66419743388376     -1.12691354481202     -0.76484346551473
  C   3.06467027258599     -2.13563800092868     -0.11516880571321
  C   1.64912258317551     -2.17272263678697      0.33789555731603
  N   1.06044968504485     -3.18932909824991      0.80534926606117
  N   0.93886463960141     -0.94657336466286      0.26327749490506
  C   1.43204042794952      0.07401182605077      0.76886829277104
  O   0.86288984119653      1.31114243782940      0.49714628076492
  C   1.59347803484792      2.32813520450613      0.02562904749269
  C   0.87470943918551      3.65764754508332      0.13961932155883
  O   -0.14549713084149      3.78743511303123      0.73832058514387
  N   2.75824818802958      2.35705328448874     -0.49221298206834
  H   5.06059590951602      1.88208238277930      0.39236262391844
  H   3.69579338219580     -2.93942412506338      0.24746053255493
  H   1.67186184885713     -4.00290226813392      0.77172480012949
  H   2.29898757138699      0.13340488280850      1.43068846164853
  H   1.40343778170960      4.47682207438422     -0.37195941142352
