24
Coordinates from ORCA-job 15999optt
  Br  5.64589667186133      2.26227298102446      2.59269706480198
  C   5.75376726292740      2.11180669346773      0.72852718324438
  C   4.67874497004043      2.20362637213932     -0.07467488585945
  N   4.85541208508463      1.74390291071825     -1.36549766140128
  N   5.82716909302072      0.82810576121747     -1.64501488394339
  N   6.86407446451993      0.83658266157790     -0.96538004303385
  C   7.01260617923445      1.83441663546664      0.04803123405759
  C   8.21830211504996      2.40188849533443      0.22449387016387
  C   8.50072421352930      3.60630087347841      1.06957121888546
  O   9.54575069028325      3.72813247980092      1.66214356918851
  C   7.37295249026322      4.58592425401958      1.16515497990366
  C   6.59460725195028      4.82553439664196      0.10449966977312
  C   5.14220833738406      4.97808598551677      0.05384840214999
  C   4.35182123762709      4.69338706116725      1.08945856072500
  O   3.20952196725345      3.94009339826380      0.91821228650811
  C   3.31596393362338      2.79072097711110      0.17468031783609
  N   2.32367348328064      2.24093003044897     -0.36134075701569
  H   4.01329053671246      1.60306429734396     -1.90957510180647
  H   9.06559260860233      1.96082246608532     -0.28767927350744
  H   7.11800659002737      4.90450785144241      2.16957157206441
  H   6.98611015623985      4.51773514210240     -0.86083243057872
  H   4.71613008941611      4.82011420629215     -0.93262515978658
  H   4.59302553486834      4.85542801200859      2.13043539298395
  H   1.46564803719995      2.76461605733015     -0.19470512535325
