22
Coordinates from ORCA-job 16003optt
  Br  4.11245877495144      1.62379815127121     -2.30487275538373
  C   4.55988754932032      0.99623798372347     -0.60586046407441
  C   3.87166769472543      1.25987738229716      0.51971852219477
  N   4.14096129826887      0.43620005286923      1.59395967212914
  N   4.77296635463852     -0.74727421988411      1.44281047944597
  N   5.58468763700266     -0.86061546536611      0.49654330745337
  C   5.78395326367764      0.27249133170116     -0.31345651385511
  C   6.99735185463037      0.84034002897017     -0.54901158721363
  N   6.85566670706117      2.17106896238148     -0.85293148375780
  C   7.63709226125332      3.16082935979258     -0.78072829243859
  C   7.00616907510722      4.52428366884375     -0.89418266781929
  O   7.60583376248854      5.48699223908991     -1.28854603574070
  N   5.64036343251399      4.62114276559068     -0.54916696469313
  C   4.93645573197644      3.72410895955331      0.19463244514274
  N   3.65955649396127      3.66293387940135      0.23195093642724
  C   3.12354459040313      2.54301469219075      0.86297451897742
  O   2.23081178407703      2.53953711536181      1.66432470586277
  H   3.53018528851741      0.48852512766989      2.39908334382931
  H   7.94026676204790      0.35666858963314     -0.31330046963291
  H   8.71959970613042      3.14237654091041     -0.63758460652555
  H   5.14244775424221      5.40336289499986     -0.95651625356230
  H   5.56607222300464      3.06909995899886      0.78716016323440
