21
Coordinates from ORCA-job 16001optt
  Br  2.15128904658535     -2.02161266968274      0.29799846874373
  C   3.29073099415130     -0.55744152757487      0.41948871029094
  C   3.21061281011567      0.35231507071002      1.41570985972195
  N   4.17893350391529      1.34900727141408      1.47497053419425
  N   5.13972507539771      1.50245655930788      0.56920831756533
  N   5.04097122472451      0.88639992229072     -0.50804452773031
  C   3.96630270527418     -0.02727269988075     -0.75170702580856
  C   3.40291461647591     -0.03641795532631     -1.97201255602017
  C   3.31969207466585      1.31427851417131     -2.61263313108185
  O   3.77379908819906      1.72276469739841     -3.63503756022049
  N   2.59293932201572      2.21454988182891     -1.74778179910074
  C   1.73365232301558      1.80315317368087     -0.73615198344629
  O   1.08261646293577      0.79708324768855     -0.77447404712318
  N   1.70426245834546      2.63505264067670      0.40189880924620
  C   1.23647328300980      2.24477561096704      1.66004044548142
  O   0.56697823027517      2.95342629599451      2.34626478710247
  S   1.79841178006111      0.67041363093551      2.41249721395966
  H   4.29683591022876      1.88561866063230      2.32040238804839
  H   2.63727443562609     -0.75381828820404     -2.22630165972415
  H   2.83491310494823      3.19070240424743     -1.84991912116729
  H   1.72967155003343      3.63956555872442      0.28258387706870
