22
Coordinates from ORCA-job 16019optt
  Br  1.53574831865535      0.75344411170059      0.79330280382509
  C   3.24933356575782      0.22591504541192      0.26708742626090
  C   3.69324225144629     -1.05590712333225      0.09526248364818
  N   5.04137532628796     -1.20530569794657     -0.20982654916867
  N   5.86076140479965     -0.16954080802549     -0.51881973575546
  N   5.46583837958855      1.00309512550493     -0.41757643135421
  C   4.16488908417562      1.34071297229619      0.07258409624828
  O   3.90664699683086      2.49776280212045      0.26714350917644
  C   5.65834808426241     -2.45158291319337     -0.22968701622145
  C   7.14360661984872     -2.56651622701312     -0.37389825201617
  O   7.64249961795499     -3.61866316143374     -0.65854220057226
  C   4.90293110915129     -3.54214252356134     -0.02160433102880
  N   3.54105143177608     -3.47225101334839      0.10556293044386
  C   2.94910260139570     -2.33127411738969      0.14756474714490
  C   1.43741644888833     -2.38932371088866      0.14363907451005
  C   0.89946489068469     -1.84597531649085     -1.10142056693071
  C   0.48913885318570     -1.41457032661216     -2.13952451107635
  H   7.73734550186460     -1.66702996581490     -0.17051079938592
  H   5.36603978223494     -4.51727327168579      0.01652610070266
  H   1.01146906917208     -1.86674104543451      0.99846096768737
  H   1.18464841185814     -3.44566218564429      0.22397956509964
  H   0.11210225018016     -1.02617064921894     -3.05570331123740
