19
Coordinates from ORCA-job 16010optt
  Br  1.02517228493952     -0.24071212952484      0.07002478064481
  C   2.88827516854398     -0.09378894323988      0.06988363708055
  C   3.50745118577491      1.10483565553467      0.07018916733049
  N   4.90750275896005      1.12737858794427      0.07005115175239
  N   5.65746854144120     -0.02425884299958      0.06967543143185
  N   5.10443232799808     -1.12485072488468      0.06938831931818
  C   3.67709965814548     -1.30692674879668      0.06940509201235
  N   3.18517248206981     -2.46992832213670      0.06900669523611
  C   5.65388822951360      2.31439107967633      0.07029366640461
  N   5.16098255422290      3.48993154273190      0.07066986521938
  C   3.79162108773846      3.53749708729410      0.07082742367502
  C   2.96910138976521      2.43124189858844      0.07062964644666
  N   1.73164310776981      2.95717083290319      0.07088471524174
  N   1.79202410940850      4.29197830453640      0.07130269261667
  N   3.02596091684001      4.65617875900330      0.07125892533132
  C   7.09000360455215      2.15381474505469      0.07008694298584
  N   8.23303967157120      2.09963306856256      0.06988016284230
  H   3.93079517204589     -3.16500057876962      0.06872471417557
  H   0.83936574869918      2.48541472852211      0.07081697025417
