20
Coordinates from ORCA-job 16012optt
  Br  6.25151133874672      0.21911820684327      3.08069827506089
  C   5.82056886948320      0.32948817187805      1.27344986377488
  C   6.38306440489338      1.18295719557878      0.39732513651326
  N   5.93262157570941      1.13960091517518     -0.92948777659185
  N   5.27467042919764      0.03216910337736     -1.43665093126830
  N   4.79832595563532     -0.79197966104661     -0.65903194437045
  C   4.82346507977688     -0.61005274755663      0.76784992178150
  N   4.04677187104562     -1.28039622514175      1.49900116001990
  C   6.09512141500619      2.15884810310755     -1.88973795588157
  O   5.97710884094539      1.96616303535138     -3.06075263180459
  C   6.27644097341654      3.58006089795755     -1.41804808924143
  N   7.04724119904439      4.08844063909123     -0.55399452483387
  N   7.79921049000485      3.25784211398515      0.21911899432773
  N   8.94511193384877      3.72930321927691      0.71875602262192
  C   9.37670057728456      2.72545569856175      1.44600400449929
  N   8.55634810122558      1.64715325565334      1.47018213540095
  C   7.56366862691107      2.00252872162313      0.69249668769761
  H   3.47945064305757     -1.90140877791772      0.92022203467890
  H   5.71291698195281      4.28186276616483     -2.02307532108602
  H   10.30968069281404      2.76884536803723      1.98267493870126
