20
Coordinates from ORCA-job 16011optt
  Br  1.76559363815546     -0.54510795813958     -2.43639407377530
  C   3.05702340162207     -0.21657715623246     -1.12107834826555
  C   3.42940939644446      1.02213783752160     -0.68301071909176
  N   4.61952553606185      1.08179960896951     -0.01439803847979
  N   5.50800395106131      0.06044683457862      0.00564935307562
  N   5.06856536412985     -1.09267828879803     -0.16673283388852
  C   3.67274491800297     -1.25409174495122     -0.32934741723804
  N   3.09077368243752     -2.18766200332942      0.31986576606227
  C   1.73379844855886     -2.09874110741663      0.58092576468965
  N   0.77285919078202     -2.84965375301297      0.33079932696315
  O   1.48170359899560     -0.95525087311149      1.41186610246182
  C   1.15800186272495      0.12339818498291      0.72161997461368
  N   1.48547222079864      1.29405192418373      1.09670961376817
  C   1.74897239885285      2.25821579253707      0.17448765865998
  N   2.69478291796747      2.19604464568315     -0.70742216950860
  C   1.02311498043402      3.51256351843823      0.28292138212902
  N   0.42568787592746      4.48426966769188      0.37655278956171
  H   4.99504515848758      1.97796984756345      0.26011018238920
  H   1.07390768630746     -3.63615991357967     -0.24127312737950
  H   0.58401377224755     -0.07097506357870     -0.18385118674719
