21
Coordinates from ORCA-job 16028optt
  Br  1.08509012428778      0.06655577356352      0.12582278206463
  C   2.93879940072787      0.02996111151575      0.11805390721120
  C   3.65232467275569     -1.13240527629068      0.11037693385910
  N   3.25169836300055     -2.46488474778094      0.10423155886038
  N   4.29246432389499     -3.19018618751991      0.09104027322142
  N   5.40251514515915     -2.43637127037334      0.09185000184674
  C   5.06774607028521     -1.11927572453841      0.10231215978364
  C   5.76286648341424      0.04949527806152      0.12394994493893
  N   5.04220325554859      1.20880185751118      0.13407876290375
  C   5.75887634356690      2.47642594397339      0.08638515982172
  C   7.14944486863104      2.37599256482501      0.65458645156866
  N   7.76941219282230      3.25329531744309      1.28837703940595
  O   7.85618702214747      1.22610727823510      0.36043052575893
  C   7.23069486682830      0.04918310827265      0.15219718953401
  O   7.86351446326861     -0.95791685827178      0.01732057432389
  C   3.63777638782360      1.30804902954171      0.09247845247671
  O   3.11524776772923      2.40402593038119      0.03921979513509
  H   6.32339872737162     -2.84648636372061      0.06491806493958
  H   5.17766222903821      3.20859101511992      0.64052567887657
  H   5.81586509147220      2.81923990539088     -0.95154190949555
  H   7.19321220022638      4.07680231466074      1.44338665296466
