20
Coordinates from ORCA-job 16027optt
  Br  1.35588330879380      0.30418169730619     -0.04379432825286
  C   3.19928686149041      0.09903658776602     -0.04372029355359
  C   3.80877171268543     -1.14500704515091     -0.04216811753610
  N   3.23906132240666     -2.40666499419376     -0.04038325905384
  N   4.16041873944586     -3.27339170205844     -0.03945282647860
  N   5.37026912153702     -2.66695359258432     -0.04030361105605
  C   5.22483089808164     -1.32119192487892     -0.04207847148628
  C   6.05716866373858     -0.23318079123747     -0.04356218848554
  N   5.38793082352930      0.94905443355095     -0.04508662020919
  C   6.09857351598094      2.11014651881298     -0.04660836084799
  C   5.10532274584483      3.09169013175054     -0.04783887121348
  N   3.87006521810325      2.55345026346552     -0.04706641532461
  C   4.04690731107858      1.22554287645616     -0.04533574682389
  C   7.50918893695491      1.71000059952337     -0.04604355518704
  N   8.60633507604960      2.32939812327775     -0.04670221758735
  C   7.49182025822360      0.14011471928677     -0.04400393857636
  O   8.43824801257149     -0.58801768472160     -0.04287268714836
  H   6.21175249159223     -3.22008118212440     -0.03973494637805
  H   5.24097642722238      4.16154654451902     -0.04928229047684
  H   8.47118855466944      3.34132642123457     -0.04796125432398
