20
Coordinates from ORCA-job 16026optt
  Br  1.84680499696541      1.06355915921312     -0.74934339218425
  C   3.61639147587429      0.62228881218764     -0.35237317480975
  C   4.03798614173221     -0.68727932941452     -0.27328312643614
  N   3.29428935040767     -1.84583172443965     -0.44431010151053
  N   4.04918872779415     -2.84602747269648     -0.29289038787255
  N   5.31224953069342     -2.43914050173198     -0.02100858522786
  C   5.39295344313469     -1.08045364398310      0.01045696680769
  C   6.37470063887556     -0.14542042654548      0.22539701756661
  C   7.82040647000368     -0.03970413617011      0.51651689292887
  N   8.73664732899268     -0.88734945204946      0.68466653531136
  C   8.14540145211314      1.50057347044879      0.60190160587493
  O   9.22686319000606      1.95579967777541      0.82223351339939
  C   6.84955208572614      2.16005117647855      0.35094537370558
  C   5.90437228891150      1.17557975754869      0.14380325655620
  C   4.58898987954477      1.62734294190311     -0.12633419647902
  C   4.57446390586544      3.02226233308457     -0.10912730699345
  S   6.10627441747309      3.67334708429089      0.21754077602536
  H   6.02259515372395     -3.13535068408057      0.12401535395031
  H   8.39608996833278     -1.84585632321134      0.60216527833107
  H   3.73377955382931      3.67760928139192     -0.27497229894383
