20
Coordinates from ORCA-job 16029optt
  Br  0.75074464460004      0.17735626438286     -0.19735215626775
  C   2.59709861100236      0.07662458633487     -0.05553773335998
  C   3.42729305317569      1.16009150515336      0.00445506245432
  N   3.22697974918149      2.50631012165075     -0.01492867756496
  N   4.40173746769301      3.15249635260941      0.06432047577943
  N   5.35799233190470      2.32189739210403      0.13572989072294
  C   4.83364288119814      1.04196650316038      0.10510343017339
  C   5.44696186771576     -0.18981791335455      0.15210415983261
  Br  7.28698843149599     -0.40280650600740      0.28608775947508
  C   4.60287588721960     -1.30699478188995      0.09716208691803
  N   4.85606418196586     -2.61283270558027      0.12588642691133
  C   3.64428144546190     -3.16340719886929      0.04817357353016
  C   3.41922103298696     -4.64433231225953      0.05270707943725
  C   3.73859279883037     -5.23580375678640      1.35304400571109
  N   3.98082811777259     -5.70665637806072      2.36785513096381
  N   2.61478288391375     -2.32428475124544     -0.03601892241604
  N   3.21725534621452     -1.12790823616710     -0.00414400292169
  H   2.36684265009094      3.02597472003193     -0.07691080038475
  H   4.05367514547009     -5.11044211317141     -0.70230625159553
  H   2.37714147210618     -4.85343079203552     -0.18543053739875
