22
Coordinates from ORCA-job 16021optt
  Br  1.03336156855397      0.17926496113919      0.13560572188175
  C   2.89161367341410      0.06466885308901      0.01735906652995
  C   3.55711990799661     -1.10302813657431     -0.12649104644716
  N   4.94113433752481     -1.05799324022872     -0.13270549883139
  N   5.64710251996465      0.09574289316312     -0.04756223668846
  N   5.07039626366921      1.18682792323378      0.09136855784143
  C   3.64063824037484      1.31026163712667      0.12655155890795
  O   3.15604656486984      2.40086441343003      0.24817974087003
  C   5.82205468596806     -2.17570387468844     -0.51258504791915
  O   6.52261155533624     -2.03532087753978     -1.45787369456533
  C   5.89371982650368     -3.38577030034838      0.39462892763797
  C   4.64121100294833     -3.69424579179239      1.21695106577182
  C   3.43706400908805     -3.53815599349658      0.36734579197670
  C   2.95950764321635     -2.43295035408450     -0.24814065252356
  N   1.84360135420446     -2.77238384050431     -0.99782816150502
  C   1.71130726638393     -4.03090467898131     -0.79942130551789
  O   2.64329913694710     -4.57342593774525      0.02134442064278
  H   6.74799086983853     -3.20522505993364      1.05394179132744
  H   6.15862306346062     -4.22341558579803     -0.24949705273292
  H   4.56574795180392     -3.00961743155416      2.06426086089008
  H   4.69737873870605     -4.70503126594704      1.61671694826804
  H   0.96946981922661     -4.70045831196491     -1.20114975581507
