22
Coordinates from ORCA-job 16024optt
  Br  1.66848589350793      0.88688996780675     -0.01004590572670
  C   3.46164514602014      0.36422092614649     -0.05504694528408
  C   3.82546966607735     -0.94564145642555     -0.02591403087189
  N   3.15800051250413     -2.12333691726822      0.04448299106404
  N   4.03188096930376     -3.17194232881221      0.07598541728617
  N   5.21610374959123     -2.74688577643839      0.03179811692607
  C   5.17926741710420     -1.35964104327641     -0.04024419639769
  C   6.18902382285625     -0.45220179610980     -0.09654130380537
  C   7.63770315978352     -0.63666604235867     -0.14300962099743
  C   8.27806650081874      0.14083333596547      0.73179687026712
  C   9.04391463266982      1.24202769168639      0.11321165386320
  N   10.24596885199450      1.57046360379344     -0.04849982329300
  C   7.94599469897747      2.09621101536837     -0.49156935390430
  N   6.68795401367031      1.91987569981813     -0.59843956476818
  N   5.84954551402865      0.88710567746492     -0.18547168665623
  C   4.47247192468245      1.39268145527266     -0.10275347205077
  O   4.27871059750106      2.57746030919075     -0.07093093897418
  H   2.16635079132056     -2.29075648538675      0.08923623577480
  H   8.08291265926916     -0.90318186714322     -1.09686826221482
  H   7.73249549359166      0.44948018270826      1.62141809581291
  H   10.87856872464885      0.89646555869042      0.38280347822281
  H   8.29746526007818      3.02353828930719     -0.94039775427248
