20
Coordinates from ORCA-job 16020optt
  Br  1.21231144245334      0.28787383485839      0.03399808028698
  C   3.06843728320128      0.04497460714118      0.04364301803431
  C   3.68735335017627     -1.17211481042955      0.04628090588663
  N   5.08346303852360     -1.14952628644359      0.05082245164588
  N   5.82242825710223      0.00454008213982      0.05430643841375
  N   5.26857291710205      1.10799173419010      0.05349268817221
  C   3.83780311362456      1.26746254136539      0.04803388623608
  O   3.39150562733845      2.38293675716784      0.04752518539430
  C   5.87036598304478     -2.30996667332010      0.05094077745261
  N   5.36769537951305     -3.48856117590734      0.04858953471981
  C   4.00955001035385     -3.56498521048934      0.04647110054522
  C   3.11937648542973     -2.50199481374148      0.04525253111207
  C   1.76692991569616     -2.95963014656152      0.04402046257107
  C   1.68757057293761     -4.31558518617158      0.04393984991404
  S   3.21756497364724     -5.08213586633516      0.04538122877736
  C   7.28997840902520     -2.14003792504554      0.05336913538385
  C   8.48409134767927     -2.07924870030667      0.05481720075749
  H   0.89780941148269     -2.32740377320114      0.04354566530581
  H   0.78850478823238     -4.91033704563230      0.04325827421546
  H   9.54668769343623     -2.01225194327738      0.05631158517508
