23
Coordinates from ORCA-job 16045optt
  Br  0.94228007517375      0.22070421408767     -0.14866108839718
  C   2.78599588387147      0.02788341188927     -0.03333284866397
  C   3.61952502545756      1.07753546250683      0.06075459290592
  N   5.00131146010496      0.83243918569991      0.13147937984619
  N   5.67657464511417      1.95821963437399      0.19882667040000
  N   4.88838093378151      2.96225888680624      0.19135268345264
  C   3.53615526738756      2.53001501686422      0.10651023745517
  N   2.48622461508592      3.24667791196560      0.07831571855567
  C   5.52679296925831     -0.45770116358450      0.09550235691185
  N   6.90993818455800     -0.47849884899661      0.15573911949635
  C   7.66278559729428     -1.60950234710937      0.10656478444250
  O   7.24369243072938     -2.72985609837213      0.01790330639790
  O   8.97649612513136     -1.26609243541498      0.17411368894758
  C   9.91416014432725     -2.28087483864555      0.08372315351776
  N   11.13939801912698     -2.05742550621390      0.11108001214804
  C   4.66696531760175     -1.48259466985287      0.00838891777540
  N   3.28629385889447     -1.23777757409779     -0.05061400147872
  H   2.74411096303829      4.23103623160831      0.12624406275488
  H   7.37203326706335      0.42002880394195      0.21705057908673
  H   9.47972924495381     -3.26876392341587     -0.01551324559670
  H   11.34614435568168     -1.06278795365149      0.20644930742904
  H   4.99207399121898     -2.50636980305232     -0.02137831352764
  H   2.64993762514515     -2.01355359733661     -0.11549907385938
