23
Coordinates from ORCA-job 16040optt
  Br  1.10869875153010     -0.06108147778546     -0.23596754885305
  C   2.95352923573829      0.08504422097434     -0.05953597964389
  C   3.59666975774120      1.27317508797447      0.07796559433103
  N   3.11178626202219      2.57773520064338      0.11864947313753
  N   4.10186228451721      3.36360966604745      0.25035901882891
  N   5.25149900222365      2.69525539695243      0.31239227389413
  C   5.01513011819110      1.34317918058982      0.20736838180270
  C   5.75584636498008      0.21769331443262      0.20382574680280
  O   5.12270241280891     -0.95181449129570      0.06667823410378
  C   3.73492951304330     -1.13791700329204     -0.07808632652656
  O   3.34821466002760     -2.25930420859427     -0.19862804296545
  C   7.23898111085338      0.09183354937382      0.29185399071301
  C   7.89199372425476     -0.16291458837940     -1.08947976009762
  N   9.16345123310244      0.50555509750814     -0.91758573477988
  C   9.11364422162158      1.47289109334004      0.05177183388544
  O   9.95243724553786      2.28908932572930      0.32326430376763
  N   7.86939290301929      1.33868124275102      0.69392114375018
  H   6.13108816318537      3.18026587039356      0.38100103677853
  H   7.48167842250934     -0.73584567346698      0.96654872893268
  H   7.28988150375333      0.29178350928493     -1.88195864199537
  H   8.00248934287036     -1.22616544229169     -1.28893722985999
  H   9.83186008536476      0.60791558270693     -1.66327608429054
  H   7.89623368110382      1.56433554640329      1.67885558828400
