24
Coordinates from ORCA-job 16047optt
  Br  1.16393367711876     -0.62707156730945      0.83169473711314
  C   2.91883930806790     -0.22009906557131      0.34106427915191
  C   3.44870797288924      1.00803661170234      0.07792617808595
  N   3.06028353340755      2.32989539470432      0.06403896814661
  N   4.15225957755612      3.10519180709329     -0.13480619074724
  N   5.20220086984367      2.41178773913792     -0.21802729581707
  C   4.86158878817776      1.05904732172005     -0.09710727311239
  N   5.70661153580963      0.07675474220589     -0.11211614150836
  C   5.19267028954013     -1.18061304656126      0.04447886911954
  O   5.79653498255851     -2.22190189572769      0.01331197250483
  N   3.77760416154143     -1.24924594606699      0.29819438845093
  C   1.77227568863773      2.89167179737446     -0.06956600294233
  N   0.85498611417490      2.21936827188937     -0.59817064354836
  C   -0.49581869693006      2.76517844851523     -0.60049153283922
  C   -0.64589726020215      3.98388190998326      0.30209038795678
  C   0.57002387866324      4.86652907392787      0.10955018210495
  O   1.75577347884506      4.12749072096151      0.43198564391327
  H   3.44237227430795     -2.18645328376045      0.47849117080417
  H   -1.17410778313157      1.96572515113018     -0.29827370343012
  H   -0.74898938037008      3.01617642883198     -1.63348355870207
  H   -0.69729950229502      3.67944036175833      1.34944116467407
  H   -1.55510885946714      4.53723087821462      0.06705368202037
  H   0.58094669259732      5.73096088293193      0.76756432067229
  H   0.65160865865910      5.20501726291457     -0.92684360207164
