21
Coordinates from ORCA-job 16056optt
  Br  0.81221524547725      0.40685773699071      0.15051087183592
  C   2.64498707903325      0.15054877889450     -0.01095192681906
  C   3.52335329761195      1.14661733674507     -0.01861722923919
  N   4.88984643516948      0.95769511412330     -0.12895655588005
  N   5.53733612193771      2.11564319404540     -0.08226215113605
  N   4.74517845022770      3.10115597935952     -0.00918164027751
  C   3.40035200871701      2.63152994831496      0.04670094456895
  O   2.40871575773219      3.29600914982442      0.11572296551749
  N   5.58159421518585     -0.20996294436976     -0.06532349250616
  C   4.91909918666455     -1.30089023417682     -0.08553194058936
  N   5.54939194643487     -2.50252416610353     -0.03817540510940
  C   6.92331567367541     -2.72779390500826      0.02714442445453
  C   7.58358049799483     -3.93673344409042      0.03990667653198
  C   8.93932113681819     -3.57016001975307      0.12936596386776
  N   9.09682724842958     -2.26071993685751      0.16538942861732
  N   7.85626957241505     -1.75991974529501      0.10418420620164
  S   3.14076728076688     -1.51809423762244     -0.18337135777575
  H   4.97780920358941     -3.33062414502026      0.00069507661632
  H   7.15053240505504     -4.92054920010367     -0.00995016848944
  H   9.80290557547431     -4.21412385472153      0.16447858283656
  H   7.68960166158944     -0.76596140517558      0.10422272677352
