20
Coordinates from ORCA-job 16059optt
  Br  0.78337497681520     -0.43993603912837      0.06168697673846
  C   2.65613836905241     -0.27844790356742      0.00383417109153
  C   3.47523229463935     -1.36877045008230      0.07713794852740
  N   2.92896398090201     -2.64651713639323      0.16850613634733
  N   3.64165165351973     -3.66578803460098      0.15533804267838
  N   4.98797000469301     -3.50711707286685      0.04959231022306
  C   5.63621828834184     -2.34180280974009      0.01838805549129
  C   4.91132356274388     -1.17983640948155      0.05114783297835
  C   5.45191206545920      0.15980976051843      0.00335271412880
  C   4.42626458947306      1.17982060254464     -0.13658935299012
  N   3.15030007403587      0.96966761258830     -0.12695257031001
  N   6.67119711080325      0.60611264867960      0.08203425265495
  C   7.83712917629110     -0.07700518369447      0.23418886677075
  O   8.87176215624294      0.44783133699303      0.55172251234530
  N   7.94931453570360     -1.47985786235626     -0.06624216769862
  C   7.12175552982618     -2.54241677282278     -0.10231646848501
  O   7.52030542844016     -3.68237870350689     -0.22755568808639
  H   5.53607783665643     -4.36046394325442     -0.00383729356204
  H   4.78100649964720      2.19980153403287     -0.23738607472223
  H   8.92710186671355     -1.75270517386126     -0.09205020412120
