20
Coordinates from ORCA-job 16063optt
  Br  1.33274860248164      0.02875419539490     -0.19459673059350
  C   3.20570759469663     -0.07488736412524     -0.33130963226657
  C   3.84171532571426     -1.25590839946707     -0.15312914408364
  N   3.22606038311812     -2.45087406275421      0.14325783831865
  N   3.82589415112746     -3.66996542489213     -0.01919703027966
  N   5.05555682658115     -3.72354796495756     -0.07837973892743
  C   5.85545329821538     -2.55468349481340     -0.02389314377417
  C   5.28304940091082     -1.32484339120188     -0.19402472912337
  N   5.89661717293391     -0.10332700535910     -0.46688610286726
  C   5.13271146057075      1.05098684290023     -0.67135332572018
  N   3.86952522011545      1.09500929722509     -0.58892485502125
  N   7.21639839424551      0.08459852506192     -0.89555564324137
  N   8.12372478971305     -0.60260186541918     -0.45446756025655
  C   8.02328999309529     -1.55799919088841      0.61819395510652
  O   8.64542134000299     -1.36174166353156      1.61417270839418
  C   7.25216753078525     -2.80876523688251      0.30588678602145
  N   7.75385935311496     -3.96476635491122      0.41861616423905
  H   2.21920753966816     -2.50140526224294      0.09895934614210
  H   5.72660945610268      1.92505974249217     -0.90276514761056
  H   8.71028216680648     -3.91109192162788      0.77039598554356
