21
Coordinates from ORCA-job 16067optt
  Br  1.09418841803359      0.19308260847159      0.04393651235740
  C   2.96295793265738      0.12963358908371      0.04038839230232
  C   3.61672297659920     -1.04789349016698      0.04080260713678
  N   5.02439820155532     -1.03788338524893      0.03889598165750
  N   5.87097086800946     -2.13997632499029      0.03977967433312
  N   5.41454697157723     -3.28866633453775      0.04198200797488
  C   4.03719931829763     -3.46013266790324      0.04344224093871
  C   3.33850286733313     -4.62175991309878      0.04530836029770
  O   2.02590779594321     -4.33435101470971      0.04590026513926
  C   1.86910542285224     -2.99039365447888      0.04463582306948
  C   3.09029537905287     -2.39290375382507      0.04301187529107
  C   5.68267057621428      0.18927241501112      0.03689753476843
  N   5.08727634567593      1.31691621452009      0.03595399934244
  C   3.68484332266724      1.40452855013195      0.03703916814459
  N   3.07407210747046      2.51549354931140      0.03527113815460
  C   7.11958421434324      0.15999689559236      0.03606610847592
  C   8.31319699601955      0.22213055620419      0.03457104656949
  H   3.62369459513431     -5.65868441644849      0.04620502476765
  H   0.85787074149712     -2.63197710737893      0.04496323089339
  H   3.75744448718769      3.27093662908915      0.03304048583616
  H   9.37655046187889      0.26863105537149      0.03390852254911
