20
Coordinates from ORCA-job 16066optt
  Br  4.08797902451373     -0.91753404924062      1.37915118587642
  C   3.11854535812006     -0.05657187713524      0.03234226449056
  C   3.75313715442796      0.50791010768330     -1.01677983342746
  N   5.14722113938233      0.47441944285009     -1.15793461692836
  N   5.72113956063178      0.97566680817625     -2.15741395528554
  N   5.03877598765810      1.57781961552252     -3.12565013439816
  C   3.66727080246650      1.70454346551039     -3.10882255690758
  C   2.67006462093004      2.23587659418182     -3.87404583752681
  N   2.78577535648059      2.93168825665664     -5.07451866742676
  C   3.53782359922809      4.06531312889866     -5.23069435016206
  O   3.60735783038569      4.69274009268323     -6.25131223847886
  N   1.45499433200306      1.99071974379401     -3.27748567454646
  C   1.70863266633007      1.33388696140146     -2.18170811011019
  S   0.57388402026588      0.74270861000400     -1.00694208936087
  C   1.65293305820148     -0.05871963841870      0.20692374311814
  O   1.08870793192313     -0.56930552211688      1.12826369941504
  N   3.04794737597310      1.14306108408899     -2.01766585061218
  H   5.60386690800523      1.92121846536895     -3.88508787523564
  H   2.15140247023772      2.69933114491569     -5.82731605706723
  H   4.08854080283540      4.33422756517542     -4.31230304542598
