22
Coordinates from ORCA-job 16073optt
  Br  1.24618106889402     -0.60388886448300     -0.04329838738590
  C   3.08826113183986     -0.24817730433564     -0.17264983502194
  C   3.63420137669511      0.99175262304956     -0.04231747075029
  N   5.03426239369856      1.12372086831543     -0.02777832861685
  N   5.69001753225043      2.25823858894518      0.28509436360718
  N   5.07714217093227      3.32223789792570      0.51120987256344
  C   3.70767262303859      3.35690597131001      0.36429056619417
  C   2.95592483144120      2.27230498492403      0.07308840977653
  C   1.56624981795438      2.48634777372851     -0.16168666541411
  C   0.43475133546097      2.81490872758549     -0.37819826455931
  C   5.95052167176860      0.02770084391773     -0.29367837923212
  N   7.20447410214081      0.15542997198400     -0.38039204419442
  C   5.29541363158631     -1.24623879993110     -0.43631717736312
  C   3.96171066144616     -1.37205157813046     -0.36881226938490
  O   3.34594256453843     -2.58696884288181     -0.55340561272737
  C   3.71039273548817     -3.65713648627091      0.19831869805360
  O   4.54055074792989     -3.66673087361235      1.04410928497900
  H   3.26219651008941      4.33433755252992      0.47582609643661
  H   -0.58261363534761      3.06471836710438     -0.56667878253330
  H   7.50734896738148      1.11622125227528     -0.25140409268130
  H   5.93995226666207     -2.09768685737136     -0.58986204080646
  H   3.09744549411062     -4.51094581657862     -0.10745794093914
