19
Coordinates from ORCA-job 16070optt
  Br  1.05621408548415      0.31834475363603     -0.01811414812823
  C   2.91654237519578      0.31442601742631     -0.03869454405700
  C   3.63750660916534      1.45684302295974     -0.05127274452294
  N   3.21131293425203      2.78141353338352     -0.05242029077425
  N   4.20706883244296      3.53768829373836     -0.05780604259486
  N   5.36825236091720      2.77524284702853     -0.06088833563717
  C   6.62826406065998      3.36496032562689     -0.05889661686054
  N   6.89109930620161      4.64330234469658     -0.05672277764871
  C   8.25155243732567      4.64389896558611     -0.05296670785537
  N   8.81213437214135      3.45676863412947     -0.05273946245354
  N   7.75034192594203      2.63158226635382     -0.05673976548885
  C   5.07097139957957      1.44505463740457     -0.05788296246761
  N   5.92586394782735      0.47460400948339     -0.05910195472658
  C   5.46575159228375     -0.82393181632127     -0.05559589387788
  N   6.14704940349010     -1.88292926315596     -0.06154491901571
  S   3.68203171663744     -1.21111563194225     -0.03764638988978
  H   8.83613375952867      5.54874599529904     -0.05018480212091
  H   7.82531268858826      1.62428300819602     -0.05741046538365
  H   7.14359619233671     -1.67218194352891     -0.07037117649642
