22
Coordinates from ORCA-job 16079optt
  Br  0.63848261229858     -1.35196108861523      0.50705593279865
  C   2.36386339400497     -0.78156558735451      0.07560206327630
  C   2.74145122368962      0.51928977994059      0.13228535765159
  N   1.75888369475503      1.36274702923282      0.67566256902127
  N   1.61983613956706      2.59497637993298      0.68850809747309
  N   2.46271916145965      3.48078191393974      0.13248430097914
  C   3.73475779925305      3.37082648956220     -0.35889075858018
  C   4.48935601946969      2.27432793919924     -0.50708886024031
  C   4.12460018824316      0.90415868182806     -0.26999250266844
  C   5.04649147637392     -0.05957148884708     -0.45672765107396
  O   6.35562607999282      0.25409432556419     -0.78279170816104
  C   7.17236126043355      0.69697410459508      0.20983400122959
  O   6.84958883411846      0.88909868975013      1.33378898267455
  C   4.75878802247974     -1.49060833950273     -0.44333257467208
  N   5.60905746555249     -2.41900025732507     -0.57474449092752
  C   3.29712902608227     -1.87741744606159     -0.30689758028612
  O   2.93775348978484     -3.00743249287726     -0.47097590025811
  H   2.09605387153713      4.41119328520920      0.25125758147506
  H   4.14458741780504      4.33272802473730     -0.63844064840626
  H   5.47461905230282      2.44404755031108     -0.91499109959510
  H   8.17299099260126      0.84944661293213     -0.20939872456421
  H   6.55000277819477     -2.03613410615127     -0.68120638714592
