21
Coordinates from ORCA-job 16082optt
  Br  1.03744124506074     -0.08602795758122      0.05154619572741
  C   2.91134298474625      0.00903130518342      0.06804262012414
  C   3.66343729208356     -1.11745984581852      0.07660459172301
  N   3.12621332241536     -2.38075317454620      0.07733098864461
  N   3.79675868342168     -3.50629300821698      0.08414715904391
  N   5.06243382944246     -3.48967995383493      0.08944438445567
  C   5.75467937944907     -2.29521142858874      0.08932037861336
  C   7.25611454129213     -2.45593991520049      0.09440127734826
  C   7.72428889785918     -3.83611428920149      0.09371270004736
  C   8.16292337378832     -4.94746449026090      0.09434962111971
  C   5.10230393551950     -1.08982226434491      0.08488087862463
  C   5.65877805715099      0.25596945116139      0.08520928492281
  N   4.96829145903569      1.33275182811733      0.08043508906600
  C   3.54026288598010      1.31987521628174      0.07319693782764
  O   2.94257835129936      2.36312730481811      0.07139570590057
  C   7.09821377520689      0.45443931058797      0.09101482517752
  N   8.23182860526696      0.61871949802959      0.09501216853760
  H   2.11806397892241     -2.49061268960856      0.07276203580268
  H   7.66535434923994     -1.93698732411870      0.96489364554647
  H   7.67131340557838     -1.93458951501226     -0.77174156394108
  H   8.54337764724090     -5.94095805784563      0.09204107568773
