21
Coordinates from ORCA-job 16081optt
  Br  1.16047494971712      0.07721142760820      0.19186053513537
  C   3.00150358716708     -0.15984576670728      0.03403667909024
  C   3.58846992287111     -1.37616750587851     -0.00761744179106
  N   3.04068154340985     -2.67954936675972      0.05612159193140
  N   3.79663729359416     -3.67834675573048      0.03426220385831
  N   5.16964368447520     -3.63803346898566     -0.02800437130631
  C   5.83229630093345     -4.93114047613345     -0.09354855339154
  C   6.23589352662269     -5.28419892666186     -1.45444365494190
  C   6.56982191103663     -5.56748569218863     -2.56673357941216
  C   5.82684853592758     -2.43795209519904     -0.11972548850721
  N   7.08674783590921     -2.08253516726892     -0.17581831030857
  O   7.03055531865011     -0.64015215760244     -0.19895442469080
  C   5.75975768593741     -0.28024129948887     -0.15478861356759
  O   5.28147204633095      0.94672198066943     -0.12257313796355
  C   3.84029162846228      1.07310527348827     -0.04164027158107
  N   3.36636550240960      2.22837606644747     -0.03433409669299
  C   4.97424837311557     -1.35450710549481     -0.11729085605285
  H   5.12818678764173     -5.66167420090673      0.30186925944122
  H   6.70749179354306     -4.89620343010619      0.55811898471446
  H   6.86529676275958     -5.82133320304527     -3.55706088362881
  H   4.08731500948558      2.94395186994450     -0.08673557033456
