21
Coordinates from ORCA-job 16095optt
  Br  0.82400263847163      0.16449915253420      0.57068392110534
  C   2.62996002730762     -0.24669436180645      0.26066421102772
  C   3.05911861148966     -1.51884915760660      0.04663275644374
  N   2.16644186547231     -2.57347791907318      0.02905244293066
  N   2.21997793759992     -3.64757776490841     -0.87613795925024
  N   3.21938674039680     -4.34900839701926     -0.91234238334089
  C   4.26405304751093     -4.10602769961547      0.06532304426799
  N   4.51602562669310     -4.94723827870752      0.96017767997101
  N   5.02443104251085     -2.96685922388034     -0.12948244991153
  C   4.51708962171393     -1.79397915872751     -0.15342714884969
  C   5.43251824633004     -0.67934993870497     -0.32232188843849
  C   4.97497799075156      0.56155636629158     -0.11952890055030
  N   5.54325474216152      1.79512064954512     -0.12729978762908
  C   4.56579579498820      2.76675077109346      0.17302572049150
  O   4.76448955057410      3.93926191502960      0.23858038823538
  N   3.32609715339692      2.09305880542449      0.37655355165776
  C   3.56056762479728      0.84145366021298      0.20995002695080
  H   1.20253978168251     -2.26400668995518      0.07391872155726
  H   3.88863785603556     -5.74809101411571      0.88995603140013
  H   6.46318673189803     -0.92402601070262     -0.53372255603288
  H   6.50644736821747      2.02548429469182     -0.30225542203620
