23
Coordinates from ORCA-job 16096optt
  Br  0.82354926328462      0.57508367945518      0.13277628975618
  C   2.67358744704571      0.33595218825819      0.04318216428927
  C   3.53601410408509      1.37297540109358      0.13520615017699
  N   3.19160282053105      2.71572237812962      0.30436647393274
  N   4.22470536084302      3.40619105500948      0.36587746139686
  N   5.34683012716778      2.59882199205480      0.24289783522559
  C   6.59961254206493      3.24168555585757      0.11583132125596
  O   6.74544007513640      4.40363086049182      0.32069532277158
  C   4.96934064958017      1.26919699717057      0.10428404125240
  C   5.70184405713017      0.11870688091975      0.03131085889003
  C   7.19619482407735     -0.01765317383505      0.11368450220502
  C   7.85571461373392     -0.22206254689737     -1.26383645417191
  C   7.62271539078413      0.89204140149511     -2.17933577138585
  C   7.41484946558993      1.81861604619568     -2.91064072423430
  C   5.03051446578568     -1.15478323973426     -0.14071268814191
  O   5.59322042941073     -2.21588160372275     -0.27066607162182
  S   3.22368912701012     -1.26263974396992     -0.15183799408458
  H   7.38865570167797      2.56591859683637     -0.21719247992945
  H   7.40983618173856     -0.90852562980165      0.70513361942460
  H   7.64226297893606      0.82624195449822      0.63499495529265
  H   7.46310244107043     -1.14104034780480     -1.70291179733808
  H   8.92975114457989     -0.36238677396968     -1.12990080292574
  H   7.24196678873621      2.63518807226951     -3.57120621203622
