22
Coordinates from ORCA-job 16099optt
  Br  0.93488551032478      0.52945658826278      0.35519525786310
  C   2.78806405106768      0.32237379958882      0.18282997265970
  C   3.36557758130952     -0.89532643203504      0.28412332545085
  N   2.61607181777467     -2.06482973763962      0.47901801598332
  N   2.64670549620061     -2.81792382533981     -0.77461821229848
  N   3.58486819406354     -3.58381645057565     -0.88937660403026
  C   4.62123022459473     -3.57258793896990      0.12833228971999
  O   4.93489545150296     -4.57341505830636      0.69223098054741
  C   5.38909502231765     -2.28281099006290      0.22079753183478
  C   6.73135176098237     -2.40378993855375      0.28197864137981
  C   7.63930921467689     -1.25652394501303      0.22545981690472
  O   8.85122557363522     -1.37684911347201      0.30416884798840
  C   6.94318694051778     -0.00961435530900      0.04134657127455
  C   5.58257386262989      0.08746290032272      0.01852179310043
  C   4.92374709255996      1.35737830074406     -0.11958810850817
  C   3.58810115398807      1.48331686246831     -0.05052480234064
  N   4.76126898428551     -1.03901424894742      0.13680451201186
  H   2.96573393205110     -2.63779756362631      1.24771896083757
  H   7.15844786415873     -3.39617812677747      0.33831028440248
  H   7.52730763422632      0.89438508937547     -0.06101864714255
  H   5.56060031325843      2.21751861453290     -0.27171991991862
  H   3.10475232387354      2.44458556933323     -0.15199050772022
