22
Coordinates from ORCA-job 16100optt
  Br  0.70838464006600      0.92243707575884      1.04724034892109
  C   2.44688208953827      0.37281296674784      0.57183400797829
  C   2.62090276291819     -0.85238002363125      0.02551423819595
  N   1.45786831863727     -1.65487617574788     -0.25868029797177
  N   2.09909670911917     -2.76542272096521     -0.88410636147028
  N   2.51796544243244     -3.55083006575490     -0.04810000797006
  C   3.87973180598823     -3.90591766937232     -0.36903649914101
  O   4.37475558299863     -4.97921744499289     -0.48466812023475
  C   4.57160668612315     -2.58688297959954     -0.28737555429129
  C   4.03204939043301     -1.32741311568543     -0.20884514169459
  C   5.03357116411792     -0.23332190076835     -0.22731108910275
  C   6.25519139893026     -0.26605195723666     -0.78999104738699
  C   7.06509347836779      0.93575824194316     -0.55507965074940
  N   8.24319086059192      1.20325177911971     -0.92425999511534
  S   6.12877880676702      2.10128610374758      0.40708729895140
  C   4.74127096943691      1.04340786591568      0.40897550738618
  C   3.49941717281935      1.32594598172179      0.82870408863058
  H   1.02540664482669     -1.95214372124323      0.62219998894352
  H   5.64945298746787     -2.67727154220945     -0.26114935912081
  H   6.65259558198936     -1.07547806628576     -1.38764502271841
  H   8.64355000132559      0.43915322814141     -1.46776156427053
  H   3.24123750510492      2.27315414039688      1.28045423223098
