19
Coordinates from ORCA-job 16103optt
  Br  0.87743395339756      1.37662694024014      0.06229261333906
  C   2.54622586287877      0.50999682969840      0.09470788418948
  C   2.59812611908808     -0.85194932213602      0.20015170677023
  N   1.45745381808280     -1.66408941451648      0.23293494535974
  N   1.39219154718429     -2.43125312329900     -1.00022648656682
  N   1.93027082902089     -3.52479754189431     -0.95296758383299
  C   2.72737070896444     -3.83867306903429      0.20843776860143
  O   2.57715319524688     -4.80841917184245      0.86958700940055
  C   3.97409656157370     -2.92441054337875      0.42219506368828
  O   5.00009661720528     -3.41548894205548      0.74068206591727
  N   3.84390892846374     -1.50206828029511      0.21242225407577
  C   4.96466412163540     -0.72999165982871      0.11629004936551
  N   6.22359438489871     -1.03328674585125      0.09692532193175
  C   6.80164875616658      0.22986809888794     -0.03280664015952
  N   6.02294136848245      1.27954883137709     -0.08367402875810
  C   4.77763871410190      0.72987262080588      0.00591135730207
  N   3.62822397955700      1.31672654304745      0.00625877346665
  H   1.38440761511966     -2.26665944741596      1.05215616233448
  H   7.87855291893185      0.30944739749093     -0.08927823642483
