22
Coordinates from ORCA-job 16105optt
  Br  0.81449824488440      0.42137984586940      0.27004774767228
  C   2.63241317190209      0.01405612513974      0.15829560017580
  C   3.04291825840430     -1.25861395279770      0.06888952608360
  N   2.36372650492355     -2.47938731703089      0.19267691119865
  N   2.50572423190429     -3.13551308067054     -0.88004597907148
  N   3.03741070832175     -4.31035572116445     -0.49909092388753
  C   4.25231994212243     -4.09442579720468      0.25538499334592
  O   4.77503844084734     -5.01066470762916      0.81236177824607
  N   4.89921247481977     -2.83756824723945      0.13971588714642
  C   4.46431290683254     -1.63856609933759      0.03068564986613
  C   5.46458655583147     -0.51678429209419     -0.11180432190427
  N   6.70438268287732     -0.70760143503951     -0.27633534105889
  C   4.91352780848681      0.83277548152168     -0.01392099002595
  C   5.52576502215439      2.05592890897671     -0.01885812711973
  C   4.51877333109908      3.04498124783887      0.13917586062444
  C   3.31749936607348      2.40564597240453      0.23396345125795
  N   3.54693765024855      1.04913239973305      0.14398639980394
  H   3.05186330582109     -5.05508551653523     -1.18477711358446
  H   6.89295942384064     -1.71351743936891     -0.28916674644876
  H   6.58807144232289      2.20144659499245     -0.12100480119975
  H   4.66120512926445      4.11124969467884      0.18116543426641
  H   2.31985339701730      2.78748733495705      0.35665510461320
