22
Coordinates from ORCA-job 16106optt
  Br  1.38975949417285     -0.24448767564336     -1.32366951138001
  C   3.06697567205289     -0.20115607807938     -0.45209702369285
  C   3.76508946262737     -1.30347621547334     -0.07018799122794
  N   5.03350443817123     -1.09447961700360      0.43835885855145
  N   5.67494873568583     -2.36475760712687      0.59268109778667
  N   5.59908574669993     -2.86023904313755     -0.52545934521949
  C   5.00462578919284     -4.15475557072971     -0.65005917981547
  O   5.45323826857955     -5.15884755041478     -1.08146660420158
  N   3.66997127707012     -3.89926628421110     -0.30552171215765
  C   3.17819307549194     -2.74403925582335      0.01525824694881
  N   1.94132413689480     -2.71504317928244      0.56366196142552
  C   1.03648429068040     -3.78559532681717      0.77034007537960
  N   1.17226512512962     -5.00711417664353      0.53143985195427
  C   5.66609782048159      0.11752300900897      0.73621068227879
  O   6.77945422127082      0.14266062169147      1.19839378624465
  C   4.84464366706473      1.25477728993944      0.34904396305467
  C   3.64590308119404      1.09321524400849     -0.24579371310944
  H   1.57960610892896     -1.80800307103625      0.81151964732695
  H   0.11023009329320     -3.40782905919354      1.20052388415990
  H   2.08395721483898     -5.22656720476010      0.13396044588165
  H   5.27594012855887      2.23301505776156      0.50818326428251
  H   3.08070215191942      1.95646569296615     -0.57232068447102
