22
Coordinates from ORCA-job 16113optt
  Br  1.39098276543712      0.59830337311137     -0.41337826597553
  C   3.17394861657440      0.06650572480483     -0.35186526443935
  C   3.67562265290112     -1.14655397645670     -0.09130617110346
  N   5.09560903981263     -1.13833429600478     -0.05690093581712
  N   5.66733989158115     -0.04290824134994      0.62688426413030
  N   5.17384823925059      1.04993762727810      0.40799081474706
  N   4.12352342315268      1.08341336779916     -0.52268838008002
  C   5.87294773034296     -2.30396793108701      0.03182216373973
  N   7.12180148571708     -2.32754628371147      0.21667651414875
  C   5.13062757695116     -3.58180085677842     -0.08937064877975
  C   5.90936214006876     -4.76342621319354     -0.22271552334513
  C   6.54417661615600     -5.77176753769359     -0.34351347499910
  C   3.78148662791683     -3.63595710285808      0.00209994388981
  C   3.08734913056077     -4.87846289041675     -0.01130415446685
  C   2.45990431129413     -5.90033216049239     -0.00969313359443
  C   2.95436799076906     -2.40686308016098      0.13826411342831
  N   1.70645407397312     -2.40715070034632      0.36485068261104
  H   3.73808629695626      2.01728037045877     -0.53950485279849
  H   7.50393830568348     -1.38949167791110      0.32298181290846
  H   7.11759349430363     -6.66239343270526     -0.44364099913742
  H   1.91825342369892     -6.81683707028211     -0.01187508177809
  H   1.35077616689807     -3.36164701200374      0.43018657671130
