19
Coordinates from ORCA-job 16112optt
  Br  1.23298997532053      0.79693221987864     -0.19573841669177
  C   2.97415030946609      0.11928285205313     -0.17156963646311
  C   3.42710719996236     -1.13411382293853      0.03392653584683
  N   4.85379136538438     -1.17692013751392     -0.00255194533489
  N   5.51759695638995     -0.12529009560794      0.65702956888653
  N   5.06718455262560      0.99627508768041      0.49286761252025
  N   3.95499452209090      1.09784415989549     -0.34119421652259
  C   5.63445786361821     -2.35177829182369     -0.04028778296686
  N   6.89105216052725     -2.38863873367369     -0.00475958250172
  C   4.84934797288866     -3.61143381959868     -0.06737177575742
  N   5.40651435181796     -4.75148647922629     -0.20188073162559
  C   4.47277433628765     -5.80244518728651     -0.08990398861883
  O   4.70497239790372     -6.96061015426021     -0.18177133098628
  S   2.78712429722789     -5.16624908818517      0.22937031978426
  C   3.40615232279998     -3.55839564813687      0.15033154541918
  C   2.73465074417702     -2.39093630633672      0.22130324709303
  Br  0.87676505484403     -2.48019830450434      0.48237089246770
  H   3.61929018861204      2.05027251262329     -0.33489707750238
  H   7.30108342805574     -1.45811076303838      0.05672676295366
