19
Coordinates from ORCA-job 16116optt
  Br  1.50820245438826     -0.08011920722719     -1.29239176025957
  C   3.24622969519965      0.11777397598504     -0.67355032489334
  C   3.90391955300379      1.26402069662108     -0.56154068169116
  N   5.19589309678662      1.15023527397888      0.02062114966116
  N   5.32544067885940      0.22593751496006      1.08200383404737
  N   4.70501105038715     -0.81730528628236      0.95352967764334
  N   3.92856091555949     -1.00315986488939     -0.20133706357057
  C   5.55464085707065      2.47031668794487      0.25682118954311
  O   6.67345519982378      2.66660557534599      0.93761294148808
  C   7.01614251207757      4.03609909948184      1.11954445323257
  C   7.95469483117081      4.10758499365441      2.24638816521920
  N   8.67109801049016      4.19426268457332      3.13254343322930
  C   7.62432591070441      4.59903010746156     -0.09869329558184
  N   8.10559724914318      5.04605227523416     -1.03420521624505
  N   4.79040871564558      3.37965259814500     -0.21677208170058
  C   3.65652463615316      2.71317569604767     -0.76629776916092
  O   2.72716435309801      3.23351169486014     -1.30438953137305
  H   3.38267202223822     -1.84703300451998     -0.09729122604699
  H   6.11901825819996      4.61635848862487      1.35240410645893
