20
Coordinates from ORCA-job 16118optt
  Br  1.54632109998459      0.70226094253861      0.80390213410541
  C   3.25783705475934      0.09504665010534      0.37227496983629
  C   3.69366891117291     -1.14676057449766      0.08108187293512
  N   5.10165536083491     -1.16408353661530     -0.12124506675644
  N   5.65274635980354     -0.09924481078595     -0.86963122505903
  N   5.19984510399380      1.00813929018729     -0.63783125093922
  N   4.21596147311939      1.09802751564260      0.34491956478167
  C   5.90580703447626     -2.29104665495875     -0.04885633021005
  O   7.07705717709285     -2.27961166003167     -0.27893736754119
  C   5.15500882754891     -3.58205269433904      0.29418430075162
  O   5.77762847341791     -4.56583731797011      0.58629605368454
  C   3.68668402882593     -3.58848945751496      0.12297667295603
  C   3.03967637732762     -4.95022309520865      0.10680013223665
  C   2.23939657823240     -5.19965644381475      1.30728164731042
  N   1.61130271976501     -5.38771196564628      2.24617289575388
  C   3.01325731628489     -2.42628812761186      0.01316488064909
  Br  1.14593875934035     -2.49108473899559     -0.21976545291019
  H   3.87033929549922      2.04521814453725      0.39882045483395
  H   3.82305293578247     -5.70540500000601      0.05281966751134
  H   2.38881511273764     -5.05219646501446     -0.76342855392989
