20
Coordinates from ORCA-job 16124optt
  Br  1.00454272922408      0.09977114809841     -0.06368208149660
  C   2.86808188264646     -0.07548059942061     -0.06502015179470
  C   3.62784189415164      1.06808329396851     -0.06569049725271
  N   3.34561686513096      2.38713794616702     -0.06587137166874
  N   4.48456207509018      3.10492971661225     -0.06656933324716
  N   5.46584973238450      2.32579381350236     -0.06678849107241
  N   4.97976608596824      1.04861684929357     -0.06631416374564
  C   5.74076554079619     -0.12237131592310     -0.06635601079663
  N   7.03066296940472     -0.02181072894448     -0.06666716175539
  C   7.67495650359764     -1.23414776988663     -0.06646930542944
  N   7.16775810699477     -2.41608290480021     -0.06633797924913
  C   5.77745388236239     -2.56641750278739     -0.06644729802951
  N   5.19654593228949     -3.69547420554595     -0.06690506733323
  C   4.97224800612509     -1.32270775349092     -0.06597499331044
  C   3.57860253643871     -1.29176662529348     -0.06521625883661
  C   2.77352974918182     -2.48400408228453     -0.06443711335929
  N   1.96956813617988     -3.30133126329507     -0.06315791686065
  H   2.44115613984076      2.83338819465652     -0.06554160721979
  H   8.75797070254716     -1.15871520882940     -0.06646571538540
  H   5.89652052964530     -4.43541100179687     -0.06708748215651
