22
Coordinates from ORCA-job 16125optt
  Br  1.22573748860525     -0.70164313625082     -0.90851291403889
  C   2.97430557039374     -0.28157712001878     -0.41136157182662
  C   3.40178478209451      0.96283942094585     -0.11048574648937
  N   4.71386089400187      1.15490264609921      0.24203074812846
  N   4.96586416405119      2.45562105970113      0.54183563972828
  N   3.90437503699966      3.08547677057159      0.38407478886967
  N   2.91817683190904      2.24075856603716     -0.04478275725863
  C   1.55242770490307      2.73103455377140     -0.08652734842114
  C   1.01618355325622      3.00393871598280      1.33194703119749
  C   1.08079923876893      1.78323572690868      2.12586967320206
  C   1.16581757048957      0.74826501846856      2.71994571112596
  C   1.48103149366939      3.94480352639772     -0.91132001753636
  N   1.38322650561789      4.90286355667682     -1.52888008681917
  N   5.65464758371348      0.19719413818922      0.34868447697831
  N   5.30425088551306     -0.96262766069401      0.08267855735892
  C   3.96785499435317     -1.33681026937862     -0.32788678538017
  N   3.71825713938460     -2.55065756318553     -0.58927289673901
  H   0.95593967867521      1.95336862871153     -0.56231763651440
  H   -0.01032477233961      3.36506834901088      1.25266545006642
  H   1.61433290807429      3.79507252220900      1.78801292456803
  H   1.22875331588723     -0.16967355877250      3.25606197164990
  H   4.55869743197820     -3.11145389138134     -0.46245921184975
