24
Coordinates from ORCA-job 16126optt
  Br  0.96539293864231     -0.46246890571571      0.02271265743783
  C   2.80719662174675     -0.13099010809041     -0.10132927869085
  C   3.65695706679132     -1.19032025093822     -0.15347690542712
  N   3.49538556347105     -2.53486752594871     -0.24018365839280
  N   4.69326876650264     -3.15652697234467     -0.23868718290933
  N   5.59616340851251     -2.29510143438200     -0.14815324912993
  N   5.01222497443362     -1.06735625698347     -0.09092776699457
  C   5.71511051695375      0.15857096497579      0.07370172467616
  N   6.97812506912281      0.24693298373821      0.16391331675617
  C   4.79603771137207      1.26967215919675      0.10127960186279
  C   3.43879549541496      1.14660673630647      0.00390582298554
  N   2.62918298878248      2.29269898911072      0.05284131616802
  C   2.98931381388075      3.49200327774692      0.78913718913767
  C   1.74293041516704      4.33044894161156      0.52637075046359
  O   1.27093952598287      3.86211511898839     -0.73762606439628
  C   1.75652727996178      2.62239345496860     -0.97922866913993
  O   1.47713538217417      1.97079291676853     -1.93604979520760
  H   2.63688662128959     -3.05504205586090     -0.31883581839403
  H   7.43290938969678     -0.66017698617169      0.10346034213968
  H   5.25944198440223      2.24152465108835      0.17522560680941
  H   3.88425050028813      3.96720215534297      0.37743448203990
  H   3.14955249295236      3.27445749334408      1.84319767029093
  H   1.94392349535211      5.39491207132438      0.44567971725099
  H   0.97234797710590      4.15151858192407      1.27763819066374
