22
Coordinates from ORCA-job 16123optt
  Br  1.03100113499956      0.04502740174627     -0.54917410870823
  C   2.79809022826181      0.01593846249632      0.09231105641400
  C   3.52616372005614      1.12735326568824      0.16482849424045
  N   3.34673473810527      2.46377864309066     -0.10763888016455
  N   4.54745907905276      3.10837470300369     -0.09476693009337
  N   5.44982434131748      2.33555814360105      0.25859233422462
  N   4.88151429050997      1.09527437519503      0.51645435116079
  C   5.54783069130283     -0.10823445877343      0.35026786086313
  C   4.81548304549408     -1.24036820499073      0.26120181378779
  N   3.39582594279416     -1.22226078629390      0.44000092979626
  C   5.48111727293222     -2.49367531249503     -0.01814936471663
  N   4.93279641427746     -3.62266349924065     -0.20647523857573
  C   6.98386542481118     -2.42636209407062     -0.05890288775592
  N   7.71965348594359     -3.43144105721211     -0.23771916479806
  C   7.66949147957217     -1.09566401647569      0.11704848153104
  N   8.89846143733969     -0.89694101521719      0.15415579540896
  O   6.86656127202802      0.02828122827544      0.22593713656680
  H   2.56392100679447      2.88807819914687     -0.57561848529703
  H   3.13012921038051     -1.53080181674865      1.37260354185728
  H   3.91669922126200     -3.53780059077581     -0.16770566350264
  H   7.12853046466626     -4.26197732657536     -0.34455994889755
  H   9.37684609809833     -1.79247424337437      0.04530887665858
