22
Coordinates from ORCA-job 16121optt
  Br  1.34066080244714     -0.38680400511038     -0.67189666554443
  C   3.10504705426113      0.01090169879251     -0.25093161963670
  C   3.59901616443842      1.21281910933281      0.11222150957604
  N   5.01378964536470      1.18599041900428      0.33685299735887
  N   5.43688768026744      0.05183475250114      1.06754789304048
  N   4.96330951174550     -1.02335838998266      0.75559163535062
  N   4.00932440540726     -1.02159241115588     -0.29427430038528
  N   5.71974753793474      2.25452198782882      0.79647585220194
  C   5.34738002362072      3.45732427194935      0.64843339809586
  N   6.07011405198087      4.52047375060251      1.14839707932678
  C   7.51403010387636      4.47926651413861      1.10734040399008
  C   6.76353335824876      5.40540160807583      0.21726440581412
  S   3.83592657900198      3.95118331761701     -0.18258376890288
  O   4.11291016634062      3.98019132224902     -1.59335417185514
  O   3.24849941016562      5.06422836844533      0.48678345886289
  C   2.82494692757915      2.44797133517304      0.12494050456291
  O   1.63781619615040      2.56446524283313      0.16867645793578
  H   3.62559948787273     -1.95036426270876     -0.39921449684555
  H   7.96075114161708      3.59854672357299      0.66365227475086
  H   8.00107457866497      4.86617574326990      1.99147981294667
  H   6.71236478669495      5.15018260546570     -0.83460296445736
  H   6.69327038631940      6.45664029810567      0.45720030381342
