23
Coordinates from ORCA-job 16129optt
  Br  0.93351628180906     -0.44813611019734      0.27494412360895
  C   2.77453623828466     -0.19776356466456      0.08839519672183
  C   3.59862508990011     -1.25609232722819      0.04673487986046
  N   3.44737607381832     -2.60965417539203      0.09798951650262
  N   4.65517524344006     -3.22668168192479      0.06295322971504
  N   5.55279220385752     -2.36656497415936     -0.02078965626276
  N   4.95861654401241     -1.13795626404696     -0.04490721989863
  C   5.64226514962394      0.08016392549441     -0.09253204538963
  N   6.89862291697465      0.20745925546458     -0.09832625603049
  N   4.77322255443900      1.16175858932035     -0.16175680935505
  C   5.43072627452799      2.44468814877221     -0.21973231133811
  C   5.75234764249547      2.96702894243635      1.16630522790218
  O   5.49345462768436      2.38913182297094      2.18216782458304
  C   6.45868707483933      4.32129938923007      1.22910229522770
  O   6.67309440390461      4.96644505117604      0.24529801534695
  C   3.35871221092905      1.13295092781059      0.04605026389671
  N   2.62226011517608      2.15861440484412      0.16778432438882
  H   2.59647368934828     -3.13689439845440      0.20042943025963
  H   7.36692812986942     -0.69271868572961     -0.07263548675911
  H   4.82864246376189      3.16778858436869     -0.76940526072319
  H   6.37070748508353      2.34086210786128     -0.76151222449790
  H   6.73644310939052      4.64424349339475      2.24728391718160
  H   3.11577447682965      3.04202753865284      0.16015902505935
