22
Coordinates from ORCA-job 16127optt
  Br  1.17189198318257      0.40538622328536      0.43234559112117
  C   3.03037363499731      0.23028322555552      0.21073730738043
  C   3.58046266375409     -0.99148995310684     -0.01801974175385
  N   3.14793180754987     -2.27292913527785     -0.14836332933112
  N   4.18589333798250     -3.09702633768377     -0.38294321941925
  N   5.24693207508326     -2.43315210197938     -0.40993456561838
  N   4.92824286719701     -1.12403858339607     -0.18684499151622
  C   5.83573194513131     -0.05325953577190     -0.15048381857699
  N   7.08902697536550     -0.11762963977147     -0.34489774265016
  C   5.12443004421041      1.19476401591801      0.13867420653885
  N   3.84480286463158      1.29583720378280      0.28553208719031
  C   6.01093531426883      2.41147907694858      0.21535636034978
  C   6.45692991097241      2.89547000347340     -1.17287466065239
  O   5.52683917589820      3.93786906733863     -1.44515073193564
  C   4.94803844218994      4.34740781032445     -0.29652249939906
  O   4.24748482923775      5.29283657410886     -0.18707562274656
  O   5.30448260123172      3.52704221873062      0.71789770583913
  H   2.20583075729875     -2.62544854926848     -0.09369991575903
  H   7.41199541292450     -1.06388289516114     -0.53195612652720
  H   6.86210231294553      2.20036868967940      0.86012212251307
  H   6.37683964593564      2.13190141118832     -1.94110320436566
  H   7.46680139801129      3.30421121108294     -1.15679521068123
