23
Coordinates from ORCA-job 16139optt
  Br  0.87806117898036     -0.13967655633902     -0.44568466701524
  C   2.74459732983036      0.09802515658616     -0.28609481811187
  C   3.31999394780174      1.32550048347214     -0.30966410060036
  N   2.54985665725865      2.48621359328274     -0.51300587944673
  N   2.46930654389109      3.51163508644710      0.43658148181713
  N   3.45083542507614      4.16263202591149      0.76751452715913
  N   4.71089063417151      3.89146733804079      0.28960101367785
  C   5.31742211834126      2.68833709054704      0.04140745983612
  C   4.76652479930283      1.48962718335035     -0.21024170121704
  C   5.66757724647491      0.31877405417605     -0.41665793416311
  N   6.86455830181873      0.33023083814357     -0.83004542194941
  C   5.02429859794462     -0.99036568347085     -0.14277092772718
  N   5.61735348626291     -2.10187171982157      0.05239108328135
  C   4.55892236195817     -3.06127055038028      0.21585230138110
  N   4.73196420111660     -4.29250082654231      0.42770560238907
  C   3.25325757406585     -2.37892351488042      0.09187991126287
  C   3.53690496600339     -1.08565286272711     -0.11546542824526
  H   1.58578839930892      2.23701113147131     -0.69241624665733
  H   5.32808934966838      4.61541164570199      0.62010662665403
  H   6.39644470221935      2.77056468562387      0.09239134779929
  H   7.18630922906148      1.27152123694943     -1.05510410313741
  H   5.73450695928333     -4.48843031358508      0.46976558020985
  H   2.29653599015935     -2.86925952195740      0.16595429280313
