20
Coordinates from ORCA-job 16131optt
  Br  1.08318970740205     -0.73151967170267     -0.54344408259000
  C   2.90045333285949     -0.37855507945756     -0.29238424067730
  C   3.38914641131330      0.85227614344717     -0.06467983846258
  N   2.86341222774537      2.11573303795715      0.05592194862886
  N   3.88245250701358      3.01705085540795      0.31433905308262
  N   4.96749215355328      2.42248233793628      0.33691494720497
  N   4.73216874491700      1.09225389919451      0.11222241618966
  C   5.72156550558284      0.10528347460915      0.07428629830695
  O   6.87583070567038      0.31358260694792      0.22578864160660
  O   5.20923690820770     -1.11596692274760     -0.15522253259793
  C   3.85438710591287     -1.47150916450225     -0.34740616294155
  N   3.56383136391904     -2.67200582161474     -0.54777811198368
  C   1.53632141154929      2.51339154802386      0.03844355470457
  C   0.75379604719103      3.10297631384690     -0.88566151564105
  N   -0.50982816388877      3.25083311896922     -0.35293080443398
  C   -0.42116280487871      2.75062522888489      0.83026332254732
  O   0.79471790623760      2.28808338796098      1.15478916169724
  H   4.38842782880920     -3.26734071231027     -0.54522694006444
  H   1.01105282397318      3.41754165280849     -1.88231352377314
  H   -1.19249172308974      2.65978376634063      1.57707840919686
