22
Coordinates from ORCA-job 16138optt
  Br  0.69117449692927      1.03839499103692     -0.29287154366100
  C   2.50584772460698      0.59947286082424     -0.19830322580598
  C   2.90790507386285     -0.67594174554184     -0.21859386600335
  N   2.18183738898004     -1.85988303643176     -0.48711094562376
  N   2.25217150306365     -2.62967603718212      0.47350792317997
  N   2.64539687151782     -3.87607482302149     -0.07341656852404
  N   4.01314889072580     -3.74434592131615     -0.26831472234729
  C   4.64295911831948     -2.62275122369113     -0.30874371535112
  C   4.30051774975820     -1.17366538451151     -0.19675523456836
  C   5.25860713970508     -0.22402498330891     -0.11561993381348
  N   6.62116331253727     -0.22253539117178     -0.05776959235311
  C   7.08059889623072      1.10670499229107      0.03938875099112
  N   8.25802269557847      1.54404103794058      0.12472932815412
  N   5.94406185819526      1.95554539420354      0.02615532051472
  C   4.91584785069082      1.20076547820694     -0.05719889018640
  C   3.50228181584546      1.67553384162592     -0.09948312322627
  N   3.18715372185010      2.90118105672859     -0.05595255443493
  H   2.51180069118744     -4.62435736156203      0.59991110203790
  H   5.70332164099032     -2.78570309909434     -0.48520979917218
  H   7.22247842584488     -1.02670554994102     -0.02036672509935
  H   8.95035489180397      0.79835739001587      0.11955153551809
  H   4.03134824177609      3.47566751390042      0.00946647977470
