22
Coordinates from ORCA-job 16159optt
  Br  1.21329233615740      0.24139228673027      0.10928241800209
  C   3.05388580177191     -0.03980135320037      0.20063555260456
  C   3.68081996026544     -1.20447533006063     -0.03520307680957
  N   5.09353516204498     -1.20733111892668      0.02999600817681
  N   5.79719373420864     -0.14194922369911     -0.59906648643799
  N   5.40767213171049      0.99487297239043     -0.46798123593000
  S   4.00973134284686      1.36988069532338      0.52301144669963
  C   5.80754185379059     -2.40310423478295      0.03462615223393
  C   7.30568551539287     -2.29573124738482      0.03578023179140
  C   7.85421942342572     -2.48211096789494     -1.39111020070138
  C   9.31169969408671     -2.44068686353487     -1.40291776521268
  C   10.50777616081773     -2.39745949950909     -1.38451293579558
  N   5.28115131590583     -3.56964169342630      0.05427235633279
  C   3.91147776433091     -3.75354350779792     -0.13751591262995
  O   3.41294487564179     -4.83703554262540     -0.19338651372771
  C   3.01628745861506     -2.50682088532062     -0.30415979104039
  O   1.85181785119694     -2.61740037282378     -0.55444739007940
  H   7.67280975631154     -3.10551113410734      0.66372500969898
  H   7.64419462486376     -1.34555467564035      0.44253396289003
  H   7.46437702953797     -1.69673120866389     -2.04164025539696
  H   7.50685576671342     -3.44108554972436     -1.78028400366865
  H   11.57103044036338     -2.36417154532064     -1.37763757099996
