21
Coordinates from ORCA-job 16165optt
  Br  1.17130295054933     -0.20026863325649      0.20191975480941
  C   3.02722348351910     -0.09456287177061      0.06462179778309
  C   3.73417686358189      1.05773517605978      0.00187210819188
  N   5.14348128285469      1.02709380404045     -0.07064392874338
  N   6.00928241906876      2.00812631700258      0.41246340174633
  N   5.66970259102249      3.17474163004785      0.54019899223114
  S   4.15322189407861      3.80484736858936      0.12010900004714
  C   3.10174073923452      2.40215724507208     -0.10590534495209
  O   1.94773311104627      2.60349885336761     -0.34050670438280
  C   5.79577116395816     -0.18996964268761     -0.24716397980721
  O   7.10135877045841     -0.03311675975180     -0.42932666677568
  C   7.89652118942328     -1.21622126498681     -0.47065624420956
  C   9.29827003611387     -0.82874453021906     -0.52188725581168
  C   10.45790404632045     -0.54358352670562     -0.56242619221769
  C   5.12510892107494     -1.36072031152571     -0.23689498728814
  C   3.70138411301011     -1.42441897602629     -0.00141667676948
  O   3.08727898475957     -2.46410941045544      0.08347278693230
  H   7.63354874631940     -1.80535744010562     -1.35343246675489
  H   7.69991360515134     -1.81596676728367      0.42203581045684
  H   11.48864099665276     -0.28028975894983     -0.59360744569011
  H   5.62843409180197     -2.29887050045513     -0.40682575879541
