22
Coordinates from ORCA-job 16167optt
  Br  7.87396963421461      2.66194119563174      0.06255149733440
  C   7.80996684691131      1.51963614166520     -1.41381873543201
  C   7.41154416674584      0.23719162950321     -1.36145003144385
  N   7.14402419857967     -0.42486964561566     -2.58897509148585
  N   7.19254699475950      0.11559883633696     -3.67645156293038
  O   7.74057147858652      1.43558215637961     -3.76259096282649
  C   8.45506351788704      1.82913733148815     -2.67170959766017
  C   9.76478464392017      2.16689672314708     -2.80127583269162
  N   10.64293059550685      2.22696731255730     -1.71203555187943
  C   10.62480325542250      1.31861266515817     -0.67088766588965
  C   10.10132591508720      0.08652506314690     -0.75087629224693
  C   9.58956098649735     -0.60136508355747      0.44653629183039
  N   10.21622227649466     -0.91889375513377      1.50414757379642
  C   8.10263910553648     -0.89601586663251      0.52740692987040
  N   7.16096480232070     -0.53595123164932     -0.24251419714099
  C   10.31153094881577      2.44109556006310     -4.09555149747988
  N   10.78643829798242      2.69241579639062     -5.10973947107664
  H   11.22598789782186      3.04336647338647     -1.62142786039655
  H   10.95226006828225      1.72333116825557      0.28050543574041
  H   9.79433917885143     -0.29529550876111     -1.71589826545856
  H   11.21024023149784     -0.70089853808689      1.41586882332251
  H   7.84128495827793     -1.48200842367334      1.40618606414450
