21
Coordinates from ORCA-job 16162optt
  Br  11.20540894208871     -0.97430660169938      1.98614526489153
  C   9.55009007278289     -0.77993883915271      1.14413044149031
  C   9.34655584440751     -0.37624213619514     -0.11965493945496
  N   8.05420964858292     -0.44508981790519     -0.65742405356540
  N   7.08611041227017     -1.28275276489765     -0.26090510789943
  N   7.07001579593077     -1.71618130600390      0.90103358396114
  S   8.12093310159675     -1.09707685777638      2.08821616322036
  O   7.55376486631584      0.14680971200695      2.49981055755188
  O   8.35505091009588     -2.14581909381892      3.01695256455603
  C   8.08080382361848     -0.04050055557392     -2.01734412072761
  C   9.41563110085890      0.34954110366419     -2.41250253375461
  O   9.79993280551338      0.77738431985559     -3.47106441669233
  N   6.09822802986080      0.14957416358636     -3.38223924916897
  N   6.99742295400473      0.06685774714137     -2.72647411854731
  C   10.24670116802877      0.12325473013983     -1.18277962879835
  C   11.69061464839245     -0.28317817487017     -1.40193808189071
  C   11.39011394594760      1.08697919978222     -0.94171350163722
  H   11.94477544863108     -0.41944673943801     -2.44433509800197
  H   12.10896454442684     -0.98786286748448     -0.70049713937553
  H   11.45150794378076      1.89183896704652     -1.66138567402505
  H   11.58616399286440      1.33815581159282      0.09096908786823
