22
Coordinates from ORCA-job 16166optt
  Br  5.05165505378015     -2.28190204276566     -1.79823518825519
  C   5.83673216850635     -1.13939751988974     -0.54047910897300
  C   6.46966586360711     -0.00571206892482     -0.92148815524993
  N   6.76296379232419      0.93163399337096      0.08471558302677
  N   6.88938479829042      0.62406582554396      1.25520838972318
  O   6.86973432549354     -0.75462290396247      1.57627873140163
  C   6.47094121524209     -1.67191349927017      0.65891252471702
  C   6.99900868852455     -2.92666213023342      0.65558757394534
  C   8.45204353949486     -3.06302117979975      0.90520260718390
  O   9.08072514286366     -2.80048955017740      1.89084828618599
  C   9.10900195490816     -3.36789576455984     -0.45714300314986
  C   9.43898285853798     -2.35274881413315     -1.24590229543544
  C   9.69051341567167     -2.24594035283150     -2.73384739641358
  N   8.77137346039516     -1.17049916692181     -3.18900093172332
  C   8.19220641630298     -0.48317825351930     -2.17067935940703
  S   9.20454198799323     -0.68413482817328     -0.69889812224702
  N   7.04703523019049      0.10358978331961     -2.18349669983990
  H   6.60956884750171     -3.58413406459553     -0.10705415277108
  H   9.14375241040953     -4.39410927962421     -0.80956671660119
  H   9.44580472954283     -3.16927477584333     -3.25669435583244
  H   10.72523374342675     -1.97186380382238     -2.94450344439046
  H   8.16313035699252     -1.36678960318675     -3.97176476589441
