18
Coordinates from ORCA-job 16171optt
  Br  1.18401201192007     -0.02701355909808     -0.17289754682673
  C   3.04635342803591     -0.04942382801001     -0.07313149443256
  C   3.70847911201004     -1.21745276132104     -0.15802202532273
  N   3.26118420012762     -2.53401049056249     -0.24875112714639
  N   4.20821141428154     -3.30156045593758     -0.12072751609508
  O   5.43093351198994     -2.57163269581544      0.07965588803095
  C   5.10666592714620     -1.27503789143523      0.02785397525943
  C   5.87838794539754     -0.18002954168265      0.17977724506036
  Br  7.64242376529441     -0.46362161019045      0.74268503898700
  C   5.22620431160580      1.11723923689933      0.04064782478914
  C   5.80874580499590      2.34240764401857     -0.11712604036382
  Br  7.61728657915190      2.60483808552937     -0.53574893176289
  C   5.04867752872903      3.59616520003444     -0.05306719281961
  O   5.52817034385233      4.68335166449087     -0.23567617499645
  N   3.67943401520923      3.46627641187005      0.25945607081615
  C   3.13716771024918      2.32733928370994      0.27865896469236
  N   3.78757294926406      1.10289018427496      0.09294346207351
  H   2.07508944073924      2.24127512322542      0.45946958005735
