28
Coordinates from ORCA-job 16178optt
  Br  1.15030524086098      0.88803989117269      0.17219293382531
  C   2.94840881834277      0.37368758713682      0.05190873743954
  C   3.91815296710581      1.28850082058825      0.36012610318475
  N   3.91000776926494      2.57599034272297      0.84912587973547
  N   5.06816493826114      2.94611582158027      1.05399935751099
  O   5.99324995957364      1.89609960712474      0.69832324645513
  C   5.25490087184094      0.87896604179469      0.26288976407585
  N   5.70145776267644     -0.24701188864624     -0.18063858586696
  C   4.75442161432569     -1.12413282542228     -0.62935261809100
  O   4.98941711656543     -2.12724463352441     -1.24412602579342
  N   3.33504761201330     -0.84385614748775     -0.34064622346641
  C   2.33405355351241     -1.94130347021855     -0.53532017063493
  C   1.80472669780276     -2.00995093281075     -1.97655332365063
  C   2.47470655231249     -3.04970527768021     -2.86924564439114
  C   2.44564154074761     -4.41750101604256     -2.19470994851087
  C   3.24424612827257     -4.39275924175719     -0.89530096481734
  C   2.75403530978795     -3.30277326654474      0.06308610251079
  H   1.50983883794313     -1.60705678357709      0.08568956672528
  H   1.84835659026685     -1.01306744705171     -2.42094109615742
  H   0.74247474026730     -2.26463823643991     -1.90050481108901
  H   3.50708160463992     -2.76655183902044     -3.07594527488308
  H   1.94138958175377     -3.08224574517818     -3.82142005649957
  H   2.85206291296844     -5.17844487629610     -2.86248012856958
  H   1.40480224363987     -4.69675512675912     -1.99112253696787
  H   4.29543734397764     -4.24849138229250     -1.12694979598190
  H   3.15124442230856     -5.35284788054563     -0.38296545972374
  H   3.48006169948334     -3.13916250124458      0.86185859686660
  H   1.84930556948426     -3.67889959358046      0.55002237676516
