22
Coordinates from ORCA-job 16174optt
  Br  1.14071237198574      0.14031508113987     -0.17405065217849
  C   2.98857849199834      0.08724741841075     -0.06707553094052
  C   3.70596524077957     -1.06186371434826     -0.00139230722028
  N   3.30866344966467     -2.41020050561296      0.01646148451533
  N   4.28898286774014     -3.14291507503461      0.07696049704368
  O   5.49938994420235     -2.38055852629620      0.10785306097828
  C   5.11180513822435     -1.09095659393673      0.05847628418880
  C   5.82631760869395      0.05879061935919      0.05302503289520
  N   5.10374432518062      1.21422287854224     -0.00115021915087
  C   3.71943262330018      1.36382176891915     -0.06038087522790
  O   3.21162321586851      2.46070481243776     -0.10286364435164
  C   7.27929070522929      0.19100470569871      0.08896884305277
  N   7.85559161040258      1.32931783765113      0.07546397209949
  C   9.28912531831008      1.05232071846251      0.11240885763611
  C   9.42556485585849     -0.46747916776813      0.14550921616336
  N   10.41200657207549     -1.24982462272500      0.17751279666982
  N   8.10570729258797     -0.90741161319016      0.13253887798157
  H   5.64142091760113      2.07722568615278     -0.00472016061816
  H   9.74304271514229      1.50547378703137      0.99578420279890
  H   9.78115479245891      1.47187263240642     -0.76712009338665
  H   11.29041887216669     -0.73878378283023      0.18039093391695
  H   7.82746107052858     -1.87632434446960      0.14339942313423
