21
Coordinates from ORCA-job 16173optt
  Br  1.12368210794599      0.04725736890479      0.18810737377747
  C   2.98015355888345      0.09287133635485      0.10933343632619
  C   3.71460564349164      1.23968705078510      0.20613699372434
  N   3.34931049472993      2.55736691246658      0.36751513726003
  N   4.33775648136355      3.27562415924733      0.42141478370533
  O   5.53960057372354      2.44394496613957      0.29632207281183
  C   5.12753253252119      1.18434980202006      0.16224231341925
  C   5.86122311599288      0.03094721716607      0.01463169920032
  C   5.07363099783481     -1.21020804569416     -0.11583303439213
  N   5.41491493233998     -2.41682762882455     -0.28194187093477
  N   3.64762409170717     -1.04114286275286     -0.04183488951025
  C   7.32002315011193      0.00602230901129     -0.00516982196682
  C   8.11754551513571      1.16660058189842      0.12309102898559
  N   9.43125872436789      1.11499414123436      0.11613290642015
  N   10.04006657022609     -0.05454560450544     -0.01535332843315
  C   9.27705670187929     -1.12348440559798     -0.13818925118027
  N   7.94644448617220     -1.15773403035152     -0.14070221722627
  H   6.42531264273827     -2.50127632926934     -0.32336629329575
  H   3.15397444987501     -1.92204826385885     -0.12602847527279
  H   7.69288554786724      2.15192220766041      0.23565393311666
  H   9.79439768109219     -2.06932088203413     -0.24716249653495
