18
Coordinates from ORCA-job 16179optt
  Br  2.03288348505874      0.58387713016247     -0.41334374036509
  C   3.75022399240554     -0.06137659518381     -0.07594908136131
  C   4.08882659920019     -1.38477139817830     -0.10978685792675
  N   3.14659130335204     -2.26034870935102     -0.52813874901735
  N   2.37276923176736     -2.97449887821960     -0.84672897385781
  O   4.75344206181288     -3.93357282140592      0.69454889978068
  C   5.68271233996506     -3.13404130430303      0.55679491501227
  C   5.46537481050752     -1.79103988521235      0.16983066897186
  C   6.35772948185778     -0.69594167800718      0.08936544099069
  N   6.06949189157547      0.55908054746141      0.01422375004313
  O   4.62449741959791      0.84663272708544      0.20032136417591
  C   7.86686453501433     -0.91846409581244     -0.03629633861827
  O   8.68285959720034     -0.13158341091147      0.32154277777340
  C   8.19000172872189     -2.27735447740394     -0.66842768727788
  O   8.47004486608405     -2.39323217303300     -1.82391533916833
  N   8.14702098020777     -3.32005624816055      0.25486478459818
  C   7.07259172257834     -3.66411885586153      0.82232334653636
  H   7.09507395309255     -4.48518987366514      1.53677081971030
