21
Coordinates from ORCA-job 16184optt
  Br  1.05302275905420      0.26890664629479     -0.04837352092949
  C   2.92490969633578      0.16956055127380     -0.04932542231692
  C   3.73741548083879      1.30102066967920     -0.04967574065040
  N   3.06863379539244      2.52227788569883     -0.04960180719154
  N   2.40041456299592      3.38583125138503     -0.04955081296273
  O   5.32619473341985      3.62859566434798     -0.05036012306522
  C   5.88150683070671      2.55004038730570     -0.05050172347876
  C   5.13611613700103      1.28830102361616     -0.05013439413797
  C   5.80677867019265      0.02614582100803     -0.05020663371014
  N   7.12210383600800     -0.00155050784156     -0.05032746034214
  C   7.76232601117754     -1.20716294347041     -0.05043714892039
  O   8.96279934528146     -1.34744958788133     -0.05041025852339
  N   6.96905561248745     -2.38125875735821     -0.05056215915754
  C   5.60158601817221     -2.46504051950072     -0.05055714930994
  N   4.89009982743752     -3.52192777961208     -0.05083481991201
  C   4.95161833820760     -1.13633812235684     -0.05014133606654
  C   3.58095773955102     -1.06126346199563     -0.04963741471571
  H   6.97235305112116      2.44340848800351     -0.05093157732046
  H   7.51180748024429     -3.23328181258966     -0.05076736305695
  H   5.45682569508424     -4.36713912880734     -0.05112954976237
  H   3.01847437929000     -1.98667576719925     -0.04953358446938
