19
Coordinates from ORCA-job 16186optt
  Br  1.18242158637340     -0.04379357307170      0.03140582932901
  C   3.03806025521152     -0.05043660218693      0.03593980565009
  C   3.77660647163975      1.11010587088207      0.03843640691684
  N   3.07843550685663      2.31081595857868      0.03863608913233
  N   2.46368585904976      3.21196022483053      0.03903980002152
  O   5.42437003350028      3.46741337338039      0.04371253967953
  C   5.95304181735012      2.37793292446073      0.04308201220814
  C   5.19419587655637      1.13085397086286      0.04058776176730
  N   5.83045715734494     -0.02373884482294      0.03967607847818
  C   5.19187604066437     -1.17434783959307      0.03787959845359
  C   6.08047088484691     -2.37466552648152      0.03579564953550
  O   7.27635240964300     -2.30594126123467      0.03507432660824
  S   5.30531180558787     -3.96255995332749      0.03369230573199
  C   3.52508040011728     -3.66139275086558      0.03955189929128
  N   2.74488183564857     -4.65866664500476      0.04455947589443
  N   3.01725551815611     -2.38987380600616      0.03777882751974
  C   3.74676223422438     -1.32030915854130      0.03724137430102
  H   7.04472254320976      2.24036359924243      0.04416313252897
  H   3.24701176401893     -5.54371996110156      0.04574708695230
