21
Coordinates from ORCA-job 16189optt
  Br  1.26522114475232      0.04294889428094     -0.02701945739009
  C   3.14692469646164     -0.01673632823485     -0.05508660608300
  C   3.84249629874946     -1.21808264677785     -0.07628263624287
  N   3.07051506476703     -2.34698929085183     -0.08594758736016
  N   2.33154633875549     -3.15765837433775     -0.09200753649332
  O   5.20477328261294     -3.61762683384090     -0.11612467301986
  C   5.88815451913359     -2.61421321991956     -0.11053974626568
  C   7.42971917856629     -2.77724208011193     -0.12489906402934
  O   7.88872946679840     -3.87947288317067     -0.13190308535525
  C   5.27773752778613     -1.28885351544151     -0.09038529818106
  C   5.97690700991753     -0.05848065136304     -0.08327847630695
  O   7.19732990334993      0.14216096608628     -0.08986954429278
  C   5.09206088107226      1.15604272800765     -0.06576771974523
  N   5.78304511303375      2.29873346435268     -0.06422938012958
  C   5.32428988335881      3.62815023686919     -0.04931720433797
  N   4.14315481592440      4.05426665495922     -0.03792022066265
  N   3.77168358494479      1.14680619550776     -0.05145630501086
  H   8.03710244933800     -1.86510807624741     -0.12749497355139
  H   6.78669928735441      2.12421994520767     -0.07378454055495
  H   6.16001965224232      4.32463946079225     -0.04852951958459
  H   3.46188990108045      3.29749535423366     -0.04015642540242
