19
Coordinates from ORCA-job 16183optt
  Br  1.23619095477123      0.23298632341682      0.06248271949347
  C   3.11654946438794      0.17024980411606      0.06734603122614
  C   3.89007334389010      1.32949460931930      0.06676171602388
  N   3.20144828206422      2.51353728243435      0.06393971558682
  N   2.51785893901380      3.37010303505514      0.06172891927000
  O   5.43871104333782      3.64516946675459      0.06698682800645
  C   6.02716227701698      2.58214016377396      0.06864496718152
  C   5.31438522974717      1.30633088844126      0.06875191559947
  C   5.92028334296680      0.03846463252221      0.07105582858362
  C   7.25343977526284     -0.35550834730063      0.07235564446836
  C   8.39580355026340      0.47735994621314      0.06961594993298
  C   9.39179240100220      1.15030588785055      0.06780340172209
  C   7.45234577750176     -1.78511817788592      0.07579978174578
  O   8.44625072877710     -2.44618561415566      0.07746353347283
  S   5.78386897808550     -2.60710836865656      0.07743624917565
  C   4.99718232216445     -1.10004026730461      0.07300129732974
  N   3.68278859862673     -1.02043605820622      0.07092630340624
  H   7.12039837907987      2.53039615906596      0.07022365331711
  H   10.27646661204002      1.74085863454625      0.06567554445785
