23
Coordinates from ORCA-job 16187optt
  Br  1.06071095369027     -0.52150894820884      0.00175034681823
  C   2.90889459198261     -0.23972602842667      0.14935030934508
  C   3.84673133913832     -1.22618761187491      0.00932027667791
  N   3.27533327195622     -2.45781081947679     -0.30392416801433
  N   2.66921447140515     -3.32771662700604     -0.57491499451040
  O   5.39883369005509     -3.45361359687104      0.16163557304576
  C   6.00789919126685     -2.39879922619696      0.01985534925074
  C   7.50210941165881     -2.41157374065279     -0.20788533944559
  C   7.97504490053080     -3.79777545234574     -0.59531500057338
  C   7.40770569182591     -4.24842878752166     -1.91394528991634
  O   6.71125943451173     -3.56864139554530     -2.61702564661288
  C   5.28426717166328     -1.13784412474039      0.05728280042913
  C   5.93289563860492      0.11703658351194      0.17668121087312
  O   7.14134313838194      0.31059571872203      0.20883845748804
  C   5.09963048101913      1.39647591914737      0.32639544752284
  N   5.61631446142014      2.53477591346235      0.42769766847841
  S   3.32651691630023      1.39049451139218      0.44024595670275
  H   7.99162128054769     -2.05572611536152      0.70124311820822
  H   7.74812153765483     -1.67829009351343     -0.97400736431397
  H   7.69969431082729     -4.54735988390332      0.15082254518234
  H   9.06584608824353     -3.83249991871211     -0.68017987552167
  H   7.68120306439027     -5.27522543548272     -2.22435625672843
  H   6.63480896292463      2.41634915960446      0.38143487561442
