19
Coordinates from ORCA-job 16188optt
  Br  1.11963769224573     -0.35010264093258      0.22271325938991
  C   2.96315746381960     -0.09405223728039      0.11231874627127
  C   3.54625026662777      1.14929363279319     -0.00070490789611
  N   2.69138375123555      2.20530177286546     -0.04250850298403
  N   1.97723193436736      3.03614004465369     -0.07592505663677
  O   4.54468634541171      4.16413911367157     -0.26638188006645
  C   5.66121638559247      3.67852429136372     -0.27028958690271
  C   6.83637622035831      4.57082223547781     -0.37699320773221
  N   7.70049110729501      5.31738631004473     -0.46307436000708
  C   5.93345457026791      2.27414778449038     -0.17674720868211
  N   7.19141906089462      1.75586527269129     -0.18867027676467
  C   7.07110557249696      0.44432426120209     -0.08963967152631
  C   5.71200268373526      0.05766903078480     -0.00842818958930
  C   4.98050622960761      1.25143245318025     -0.06533417024884
  C   5.10738169941172     -1.23694876767049      0.10370527056358
  N   5.52323537464769     -2.41034120970922      0.16952359221270
  O   3.65112430069997     -1.18370155713341      0.15486411462110
  H   7.93661271659760     -0.20270013659892     -0.07775352819578
  H   6.53872662468712     -2.43919965389400      0.13332556417380
