20
Coordinates from ORCA-job 16190optt
  Br  1.11712640260968     -0.36491652449600      0.00794792740712
  C   2.97634798441216     -0.14660279310142      0.00508615919380
  C   3.79188022106441     -1.21917871545970      0.07931895261785
  N   3.18804953128429     -2.49234820193708      0.22469610299979
  N   3.75685987316435     -3.55374571886143      0.10721707653830
  O   5.14627116586983     -3.55298488286275     -0.21147683789851
  C   5.84072306274964     -2.40206162815478     -0.09571764903444
  C   7.31281477519458     -2.58574589797481     -0.15111404074365
  O   8.05528592036492     -1.64637491129480      0.00915817311994
  C   7.79578992194165     -3.92738699978857     -0.41541152189407
  C   8.21010499714657     -5.02913533959809     -0.63218585279731
  C   5.24043155909452     -1.19959796781298      0.05260178291524
  S   6.15726793402171      0.26712208773329      0.23392132055839
  C   4.92858388015833      1.52926342659049      0.13204766423864
  N   5.27288991880665      2.73849569773346      0.23017025386011
  C   3.45925039145154      1.23885334047746     -0.09356306822529
  N   2.65542318461667      2.18402406083120     -0.32790014341396
  H   8.58274919162595     -6.00686526289794     -0.83281167570129
  H   6.27279124505604      2.87241059287519      0.37400443066072
  H   3.16835883936642      3.06977563799928     -0.33198905440139
