19
Coordinates from ORCA-job 16192optt
  Br  1.09567706375164     -0.04945320082193     -0.01355599464509
  C   2.95756507584152     -0.00994108292481     -0.01483259003817
  C   3.70149124927739     -1.15013451899585     -0.01499976428023
  N   3.04607449215930     -2.38272452128970     -0.01449569320170
  N   3.59734173006593     -3.45642855105251     -0.01462612924298
  O   5.04195774985069     -3.47796535282836     -0.01523402386837
  C   5.79363924195769     -2.36070131763849     -0.01540637871302
  N   7.04379304588053     -2.36886911046412     -0.01542324242284
  N   5.08562635235019     -1.14591256260598     -0.01566829723203
  C   5.73992322727576      0.06821079195195     -0.01625234201552
  C   5.02714443389404      1.22858547884715     -0.01632109377169
  N   5.80736369154109      2.35554835638674     -0.01707638792675
  C   7.16116916990530      2.14946802336905     -0.01764950040996
  O   8.02651261584046      2.97528624614433     -0.01845040081322
  S   7.45462057239319      0.36408302665269     -0.01714254245651
  C   3.58717053881212      1.31510408819642     -0.01565827010945
  O   2.99639856337387      2.37782077794381     -0.01572464325965
  H   7.41934425477662     -3.31232971020158     -0.01525192305499
  H   5.39718693105259      3.28035313933118     -0.01723078253784
