20
Coordinates from ORCA-job 16191optt
  Br  1.03701729259131     -0.12250388784898      0.02933313954895
  C   2.90011605673481      0.00566720858398      0.04112463878182
  C   3.72460496142207     -1.11970300815104      0.04604090634041
  N   3.13211789169992     -2.39144027850001      0.04459400340626
  N   3.77262778951790     -3.42499902177353      0.04842951709159
  O   5.18579419553326     -3.37345660087983      0.05383831193938
  C   5.91845750734639     -2.20766459217979      0.05419669415625
  N   7.17048449933117     -2.22383025672593      0.05613447141969
  C   5.11811295018919     -0.96807194339128      0.05188737902095
  N   5.74392011661739      0.20056664077912      0.05432835873414
  C   4.94081801496234      1.23124519813926      0.05088118519304
  C   3.52938194332622      1.24115722214541      0.04429311909788
  C   3.14403570822009      2.61782901974563      0.04205056852611
  C   4.30755755211558      3.30988855462408      0.04733102237072
  O   5.40447842238268      2.49311179220815      0.05263121354673
  C   4.58249940407211      4.75806067804178      0.04757692542117
  O   3.70860472580093      5.57913559119830      0.04334552849130
  H   7.52516290006315     -3.17948989450951      0.05705654811156
  H   2.15422932035752      3.04211386291341      0.03726415977717
  H   5.65197874771591      5.02738371558078      0.05166230902485
