24
Coordinates from ORCA-job 16201optt
  Br  1.10888110244645     -0.15975420738093      0.39284907024163
  C   2.97641730934793     -0.18669222270036      0.20761375642699
  C   3.64451519144953     -1.34828208993258      0.13362447814970
  N   3.01238869806400     -2.60312944877383      0.19264224450380
  N   3.63505876445954     -3.62701433921321     -0.01342028317739
  O   5.02684862458493     -3.56144413012807     -0.32516148389339
  N   5.73162040349588     -2.41543261458397     -0.23009165639480
  C   5.07498601275836     -1.34371767369180      0.00687390604752
  C   5.81806476168064     -0.04455639912428      0.14467879834742
  O   7.00084261911778     -0.00240435618070      0.31404038441379
  N   5.03248640706020      1.11567499609544      0.05617318815721
  C   3.74795447420719      1.07155314301180      0.09130682537943
  C   3.01917606331326      2.38130412978232      0.03962040591841
  C   2.71174772771542      2.88344635805087      1.45666103325091
  C   1.93589956128107      4.18838923983552      1.42051181546791
  C   1.63305507516801      4.74626384781950      2.78566099566447
  O   1.97152869378457      4.23397556555447      3.81517894242853
  H   2.09451498978313      2.28224449515931     -0.53081215349056
  H   3.67296972788114      3.09072527735283     -0.46627308225154
  H   3.64926261420197      3.02485307551258      1.99644742374549
  H   2.13965292705302      2.13868036604813      2.01325082453553
  H   0.97957330947343      4.07187577791965      0.89720148750838
  H   2.47850781230716      4.96229532041901      0.86500102835010
  H   1.05604712936528      5.69114588914826      2.79242205067042
