23
Coordinates from ORCA-job 16204optt
  Br  0.92000505170990     -0.29143675066776      0.04260977131452
  C   2.77671740306145     -0.13321664545401      0.02051248270885
  C   3.39267704592908      1.08100037967563      0.00925569740750
  N   2.75114329207563      2.33080193759535      0.00820319497951
  N   3.52195211198339      3.30234080594073     -0.00258606466723
  S   5.19660416809980      2.89489960421640     -0.01289604649017
  C   4.81335528634576      1.21700945991985     -0.00170387495839
  C   5.57336111742222      0.09400646800290      0.00056983782134
  N   4.94601142647092     -1.13501388493296      0.00871811643069
  C   5.89296859542993     -2.25940768165458      0.01114459535589
  C   7.20728495079496     -1.55022647058765      0.00620505391772
  C   8.55462458965379     -1.76493727357218      0.00775742499350
  N   9.14575859280383     -0.52358121758474      0.00145429801282
  C   8.21564547327593      0.47389343911902     -0.00369432988486
  C   6.99321675359236     -0.15105970164586     -0.00095134083062
  C   3.56373901646282     -1.36271419136980      0.01748920031981
  N   3.01807944412660     -2.51973515235822      0.02357237741170
  H   5.72203063048244     -2.88072115153677     -0.87245235185639
  H   5.72498117933246     -2.87386582561483      0.90004722109062
  H   9.14983113599022     -2.66129556685623      0.01249873978135
  H   10.13954317439419     -0.37065104788908      0.00111481085696
  H   8.50116231553156      1.51123004715412     -0.00822942567666
  H   3.69030724503070     -3.27831957989933      0.02036061196154
