20
Coordinates from ORCA-job 16209optt
  Br  1.47605443222248      0.13935847098214     -0.29527906285074
  C   3.31316961817805      0.02358386456339     -0.04722489164009
  C   3.94606586530205     -1.17453119135004      0.06334880966649
  N   3.34423861178768     -2.43703920498514      0.00393722143007
  N   4.14017854573741     -3.38055859954866      0.13083231996216
  S   5.78267686682625     -2.91737220592664      0.34910656378905
  C   5.35648161575152     -1.24893223106789      0.26020063781950
  C   6.08441241826790     -0.11521217816190      0.34798215448334
  N   5.45755760880260      1.10243204259430      0.23961232552183
  C   6.21021030352361      2.28933647625327      0.34591704604670
  C   5.61018372414578      3.48006336442307      0.20319749539048
  C   4.17005773279178      3.58577033745556     -0.06783768087026
  O   3.63538720732890      4.65862544836230     -0.23162886770107
  N   3.47950567739700      2.38986938759057     -0.11625763146585
  C   4.07620837418486      1.25225022292884      0.02045117839363
  C   7.60827884000979      2.18031467863260      0.61668363902750
  C   8.78124648870820      2.13448782340596      0.85444884611400
  H   7.15065134392165     -0.08262739254651      0.50402663136014
  H   6.18908131193940      4.38848295892284      0.28353224406032
  H   9.82435341317299      2.10669792747193      1.06795102146278
