21
Coordinates from ORCA-job 16208optt
  Br  1.04340887385503      0.20699180999945     -0.23082966598421
  C   2.89010825067754      0.00891354383322     -0.09846157235672
  C   3.70885530581758      0.93621089753047      0.47914264434199
  N   3.30673800222811      2.12977858254243      1.05058448338060
  N   4.23079597314178      2.81191988540192      1.51548649030562
  S   5.79269737711875      2.07166522612180      1.32027009927028
  C   5.11909700923087      0.69829854584968      0.51551928853537
  C   5.69558748280408     -0.42458080145902     -0.01105312209329
  C   7.14219356629812     -0.73767974706671     -0.05831636080028
  N   8.16572602744182      0.28138997018741     -0.16155205990109
  C   8.03309292104105     -0.42234642513851      1.10654396214998
  C   9.13236835660760     -1.37577852905551      1.41227536965902
  O   9.37968299698446     -1.77183890944530      2.51550983575531
  C   4.82495910337067     -1.42787728703016     -0.59595875798945
  O   5.16308243028772     -2.49217440498267     -1.06808741539370
  N   3.44488597909301     -1.10091867219967     -0.60135686642230
  H   7.35362089332569     -1.63338672633424     -0.62865187166911
  H   7.79703460075475      1.22554904575834     -0.11539919101734
  H   7.58902948405255      0.06762317452912      1.96574860244955
  H   9.70473874229410     -1.70380598549958      0.52317128115261
  H   2.85829662357466     -1.80895319354247     -1.02658517337284
