19
Coordinates from ORCA-job 16213optt
  Br  1.03114377825993      0.10762046398613      0.04021309970986
  C   2.89605365028192     -0.03922027251262      0.04175193946876
  C   3.54817388231350     -1.22479136971457      0.04090461829054
  N   2.80474757594472     -2.42688027867642      0.03922901123415
  N   3.33014519956886     -3.55013906866275      0.03800138052209
  S   4.97024356941383     -3.91610990069036      0.03803111281023
  C   5.73326582118141     -2.34802765806747      0.04042917694490
  C   4.98703930835796     -1.21632831019318      0.04170001450499
  N   5.61143498609055      0.02788949160056      0.04373439279627
  C   6.98102545127357      0.09212932600110      0.04461827180463
  C   7.75323391029362     -1.00985088495453      0.04339784297516
  C   7.18516150400596     -2.34628816489167      0.04096626383674
  N   7.78980208358346     -3.47881006586666      0.03927838114932
  N   4.94707839441263      1.21510761291722      0.04480871706712
  C   3.66661489134468      1.17699824972322      0.04381772195829
  H   7.36443466664886      1.10142843286743      0.04639252673650
  H   8.82861704750971     -0.89356153506407      0.04420032541548
  H   8.80083532270189     -3.36734837769664      0.03979933268490
  H   3.16194895681289      2.13418230989527      0.04472587009007
