16
Coordinates from ORCA-job 16217optt
  Br  1.13244380519217     -0.05547244124106      0.00126653323957
  C   2.98979712798347     -0.14102410004757      0.00129893032242
  C   3.73355397294727     -0.77277150738028      0.93832904940561
  N   3.00237449104561     -1.45253395174080      1.93757744810423
  N   3.47886200834670     -2.27107528821036      2.71885791286664
  S   5.12484445893381     -2.71707247348521      2.73657068566973
  C   5.95255262010146     -1.50073737911442      1.76877538307238
  N   7.19908863426193     -1.37487006028448      1.73941251739506
  N   5.12454257556227     -0.65956949075915      0.98830724177694
  N   5.79801263443740      0.37036569873309      0.41712558342095
  C   5.28825719832638      1.02570823874354     -0.53823445103903
  S   3.78071317907546      0.62393835061915     -1.36216397439307
  O   4.03989355082974     -0.37127464143337     -2.35706984078308
  O   3.12139001006251      1.84141398400976     -1.71296412964596
  H   7.67278159908109     -2.02013052921803      2.36661975959490
  H   5.82289213381266      1.88710559080922     -0.92370864900728
