22
Coordinates from ORCA-job 16220optt
  Br  1.05060366873973     -0.09320570695651     -0.03941069545676
  C   2.91391083641083     -0.11506644757780      0.01529201821601
  C   3.61636350120728     -1.26276442508816      0.05199381870026
  N   2.90995898110709     -2.50251001678904      0.05120062212566
  N   3.48692848644242     -3.59057242844433      0.12169736337030
  S   5.17474777187399     -3.76702967691909      0.21090396276913
  N   5.82171720444584     -2.26228455081617      0.14529847565855
  C   5.06852485968168     -1.23455344839080      0.08063094901882
  C   5.77684784943274      0.09427775772609      0.02788557062294
  O   6.95368547966428      0.21992383338522      0.00520548709395
  O   4.97526466014009      1.19071754653343      0.01423730159871
  C   3.59126943230857      1.18921307927409      0.02265095118667
  N   2.97633260707462      2.27909327786564      0.03458651187093
  C   3.72605386401088      3.52122205649079      0.04607801159466
  C   2.75651309235724      4.69870167166281      0.10295511178561
  C   3.47010161536643      5.97188385669085      0.10716661572115
  C   4.09358187202742      6.99442055306984      0.10784269229680
  H   4.35221145732901      3.59077853721371     -0.84769413680138
  H   4.40433624698794      3.54947669765434      0.90330600514691
  H   2.13909735702096      4.61538473693745      0.99926491431816
  H   2.08240416718547      4.65266240699112     -0.75435767346335
  H   4.64154498918541      7.90623068948649      0.10826612262625
