23
Coordinates from ORCA-job 16221optt
  Br  1.14272059538414      0.00701996874794      0.14370633223181
  C   3.01157680105794     -0.06539944661385      0.00066185531372
  C   3.76094870142577      1.07129163060482      0.10497523421415
  N   3.06055853809603      2.24400384292444      0.45527793899154
  N   3.53476517691406      3.37796571098285      0.39236840778225
  S   5.06798790197105      3.68300053924052     -0.35212556961199
  O   4.76136235210180      3.85047321471244     -1.74254386658332
  O   5.67662206593647      4.74909999254766      0.37461248123971
  C   5.94347454470061      2.20191949740426     -0.10546745811427
  C   7.42030856497828      2.25164443796465     -0.04131129558797
  C   8.21665509277807      1.71663007356491     -1.21003880297116
  C   8.18657102429323      3.18271901932444     -0.92901472976381
  C   5.20954789348145      1.07456377945253     -0.00446202492775
  S   6.10216925276352     -0.43752861173566      0.12619077537765
  C   4.87857867750101     -1.60722389167854     -0.10397760822271
  C   3.55756283530002     -1.37198007089961     -0.19738131662442
  H   7.83761120618575      2.07413789192594      0.94408660310371
  H   7.65064941878342      1.36179452897158     -2.06058677259207
  H   9.11450086056351      1.15903549742206     -0.98598559629995
  H   7.61573693262405      3.81116914522298     -1.59903240397083
  H   9.06381328299683      3.64779187508595     -0.50526307301902
  H   5.26698729593616     -2.61620562782297     -0.16686038741692
  H   2.87729098422675     -2.19592299734936     -0.35682872254833
