24
Coordinates from ORCA-job 16239optt
  Br  5.31383323674043      1.00286292533069     -2.11641172793574
  C   5.30651849159043     -0.18685638557801     -0.65755082158588
  C   6.21913615626844     -0.04245420154480      0.34379809163081
  N   6.15389856260737     -0.81275194254913      1.47926221349594
  S   4.88956371278209     -1.87339951258082      1.76344764436029
  O   5.43453664492247     -2.92713659407059      2.55565129435271
  O   3.78289364326344     -1.09471031233085      2.19326359254892
  C   4.64197204486514     -2.39631517390110      0.11302697515202
  O   4.73416142730095     -3.73023751812649     -0.16433357522341
  C   6.02535295357848     -4.22698369876278     -0.35872526460548
  O   6.14841344282158     -5.37407131857926     -0.62077619551900
  C   7.17127126506424     -3.27420936979903     -0.13239126344335
  C   7.51337285909920     -2.25995232041777     -0.92083761963540
  C   8.62490509208325     -1.31100034078015     -0.65365093237866
  C   8.54401460287740     -0.05487032201512     -0.19421526723982
  N   7.41266683172595      0.68080039429111      0.19773045606134
  C   4.63887166310575     -1.44411151645752     -0.83218186091462
  H   7.04613014369980     -1.11511582140191      1.86097673355589
  H   7.73238911366707     -3.49666581481491      0.77038750376611
  H   6.94631030539282     -2.08456041325889     -1.83101788270276
  H   9.62368608715173     -1.64481902448214     -0.90847395068623
  H   9.45676487863306      0.51912791909840     -0.09731740576030
  H   7.59528636547476      1.38634743282541      0.89744949981808
  H   4.40805047528392     -1.73891707009429     -1.85011023711145
