27
Coordinates from ORCA-job 16236optt
  Br  2.56872586109279     -0.81849752053303      1.01904194068041
  C   2.54853226855325      0.59559840475430     -0.25025418298483
  C   3.29665081508187      0.50984281909416     -1.39779492245444
  N   4.59519055326710      0.04508246027321     -1.32039894243696
  S   5.32418042923142      1.26375161578444     -0.30171766155974
  O   6.24054624008598      1.95982752276449     -1.15428537933413
  O   5.78077000292082      0.66707800893586      0.90674897792855
  C   3.93943992004310      2.42045321826423      0.15896659616021
  N   4.37444545030356      3.72043856074257      0.40865447108310
  C   4.46297780973938      4.68613514734793     -0.59808293150403
  N   4.99124926554633      5.82725607129354     -0.46860584736669
  C   3.90875753312493      4.28821739404122     -1.94641725269448
  O   2.52000822811108      4.01484257798305     -1.86267778474250
  C   2.00904981475627      3.34116810682000     -2.98916089133900
  C   1.80158780419934      1.85975987325689     -2.73887042319639
  O   3.06561214671145      1.22419636319517     -2.50614593794937
  C   2.69087198970444      1.95997690407705      0.28061297985460
  H   5.09330431834429      0.03010252785682     -2.20983115605086
  H   4.93910350228513      3.87992161222775      1.23203226306629
  H   5.38121172326289      5.97751916887890      0.46177718353287
  H   4.45784742757557      3.40668839771159     -2.29700156456056
  H   4.09723796590871      5.11975114693703     -2.62739130646179
  H   2.66446185251767      3.48302023898763     -3.85422588942785
  H   1.03548823334349      3.77481935312492     -3.23048721432021
  H   1.37518172789483      1.39863212625386     -3.63209152336438
  H   1.14068550754942      1.69297445819573     -1.89088237718698
  H   1.91188160884483      2.55744344173065      0.74348877662918
