23
Coordinates from ORCA-job 16245optt
  Br  1.05923222548329     -0.19655272699704      0.20478507299106
  C   2.91204263744221     -0.19599071931914     -0.08474691788191
  C   3.52973989297356      0.99095951168539     -0.44433156801987
  O   3.07477863175287      2.27201550344695     -0.33341088377770
  C   4.26972240936160      3.06424362500879     -0.06879720144371
  C   5.42807104718396      2.36055750840289     -0.76812339012999
  C   6.59042788395574      2.20352426974171      0.22412824473543
  C   7.02936989500390      0.71262146640772      0.12444804106947
  C   5.72300576644022      0.01764658212732     -0.21847363968039
  C   4.87482881796116      0.97922808158761     -0.69879652731807
  C   5.14518471145111     -1.18991218103907      0.15396099046521
  Br  6.27523536046249     -2.56678236290221      0.77483219443619
  C   3.74250323830336     -1.31297398267285      0.13967776323538
  Br  2.94455925738697     -2.96108534812968      0.57089746318349
  O   5.98028988205303      2.46688510234177      1.49457905895711
  C   4.70584068902468      2.95586978086579      1.39709518588597
  N   3.98358847784642      3.27544501302807      2.36582228564982
  H   4.03969569664585      4.08785962897677     -0.34692815695633
  H   5.69922549422431      2.71520412786005     -1.76054555486776
  H   7.41919540127616      2.89884673356470      0.09245795096546
  H   7.44998818919139      0.35684819503463      1.06489014832046
  H   7.78994515485499      0.59811517643861     -0.65183023012516
  H   4.45452923972069      3.11442701454124      3.25540967030586
