24
Coordinates from ORCA-job 16257optt
  Br  1.31622368148303      0.25748021286730      0.39891724241184
  C   3.14873220310756     -0.16864972154427      0.25323349250327
  C   3.52950046254924     -1.50828118648304      0.16359337740161
  O   2.56945879612124     -2.47544769332681      0.15105977087045
  C   3.13303139761002     -3.68661853260163     -0.28225146520754
  C   2.35990867796472     -5.00607944121083     -0.24833267184332
  O   3.42225099094454     -5.84929216451941     -0.64492070308900
  C   4.25520197865824     -5.59327102147605      0.49585122215675
  C   4.35027736196499     -4.04655010674319      0.57172745614148
  C   5.48228624739328     -3.16584145925716      0.08722466137172
  C   4.91012841936721     -1.75531386107453      0.08566768611176
  N   5.77944667219784     -0.74589568766439      0.06695186561146
  C   5.29878946339107      0.48166187030726      0.13476131781063
  N   4.01349748884854      0.81338909646359      0.24090445858521
  C   3.24138659962723     -5.88404241641734      1.60127629507532
  O   3.36440803600560     -6.32977423136571      2.69112674977382
  O   2.06381380188966     -5.41647363295910      1.08256577167523
  H   3.43971548964355     -3.56357982250345     -1.32641898384924
  H   1.48540917198428     -5.11738473111760     -0.87830146803407
  H   5.15334177009865     -6.19797114569311      0.49378785608019
  H   4.12910873599628     -3.74044951734947      1.59860123785635
  H   5.81377310655791     -3.43291286631991     -0.91900790055045
  H   6.35463929194593     -3.17273024464050      0.73967392973294
  H   6.00867015464936      1.29902830462937      0.11030880140360
