20
Coordinates from ORCA-job 16252optt
  Br  1.08539215200173      0.01957646764929      0.31334853786699
  C   2.94200119681640      0.06971760591145      0.13570434190756
  C   3.67158734925558     -1.09743517844867      0.12827074331018
  O   3.42391331020823     -2.41036056814372      0.21605581194785
  C   4.61582367135312     -3.18589212579671      0.15426830093243
  C   5.60190877336034     -2.19131884278996      0.01926676231530
  N   4.98577924042558     -0.97702116088975      0.00822089455041
  C   5.78929945448480      0.10230183768682     -0.11977495720534
  C   7.10474138265824     -0.46000672845851     -0.20769894721008
  C   6.98922760432149     -1.84004051510544     -0.12019887778814
  N   8.04740608791184     -2.71283804596765     -0.16219530934263
  C   8.18542890795479     -3.90968426426950     -0.06816828142529
  O   8.45889997019220     -5.02912950629644      0.00413915218941
  C   5.08462089099273      1.30297584518754     -0.11871617558821
  C   3.68436603907560      1.27685539690920      0.01022810908288
  C   2.99101378465068      2.52576190370240      0.01472590664119
  C   2.42254494981480      3.58027926898901      0.01799888071751
  H   8.02706188221423      0.08403804837144     -0.31736826730097
  H   5.58204153281630      2.25624716562737     -0.21340527664530
  H   1.90794181949127      4.51197339613184      0.02229865104425
