20
Coordinates from ORCA-job 16258optt
  Br  1.15761164286172     -0.22753195578725     -0.08524198301884
  C   3.02624620311363     -0.09522363193796     -0.08595054079416
  C   3.78690107808473     -1.20093618487568     -0.08644116646868
  O   3.30207081343320     -2.47536304658825     -0.08652516126058
  C   4.36749702568798     -3.31551477544519     -0.08706301619319
  C   4.35003073859550     -4.65914944928032     -0.08719540429313
  Br  2.74897414428038     -5.62650326392283     -0.08652633345740
  C   5.63423133696520     -5.34894409736682     -0.08790299662204
  N   5.84231799796402     -6.59753965720234     -0.08836805200951
  C   6.91203307861924     -4.49478272489843     -0.08810758792480
  O   8.00130154874444     -4.94807496567714     -0.08843422891057
  O   6.78862683196333     -3.11437604444734     -0.08787635140449
  C   5.56907487776007     -2.54913118110583     -0.08738455684235
  C   5.23059013321160     -1.23821477259258     -0.08695565581980
  S   6.19813911843128      0.19036509041931     -0.08684016647745
  C   4.96455348615852      1.40906578851258     -0.08625408696907
  C   3.63895622778935      1.21130429169596     -0.08592159017065
  H   4.95976591672437     -7.11138490368152     -0.08820862010923
  H   5.37881845566436      2.40780569224382     -0.08618733889087
  H   2.98425934394705      2.07212979193784     -0.08561516236318
