20
Coordinates from ORCA-job 16259optt
  Br  1.21310165724209     -0.12375756151779     -0.07177132808082
  C   3.07275852596945     -0.15033476376605     -0.06789230146463
  C   3.81683180564092     -1.25883360922975     -0.06679403223671
  O   3.37669171864257     -2.56767942578316     -0.06776292402244
  C   4.48454033593253     -3.34782861132936     -0.06679045602277
  C   4.54885351518855     -4.68799767921689     -0.06739787299861
  Br  3.03963863331681     -5.78038115157432     -0.06975485669079
  C   5.87969782709979     -5.30006049535842     -0.06607069058446
  N   6.21622760978783     -6.52232517880000     -0.06590842532939
  N   6.92956451102263     -4.36176969703436     -0.06484931835763
  N   6.87053158653532     -3.04965076209183     -0.06429038726733
  C   5.68269697293043     -2.54640294831231     -0.06512082315961
  C   5.24674020761194     -1.16068120693722     -0.06501298732271
  C   5.86259203251632      0.03672485746385     -0.06400955634753
  C   5.05782420644840      1.24430131871105     -0.06455247644276
  O   5.44621795931141      2.36928924626153     -0.06337989789074
  O   3.65879149782245      1.04950625037515     -0.06660208137388
  H   5.40839384380324     -7.13682711860901     -0.06689367756371
  H   7.85749451483904     -4.76336875741231     -0.06428596073176
  H   6.93481103833824      0.15907729416122     -0.06285994611171
