22
Coordinates from ORCA-job 16251optt
  Br  0.88314894158257     -0.23798192566604      0.19313826868019
  C   2.73551386303170     -0.12178935250179     -0.06891385978107
  C   3.30927942677908      1.06252138474930     -0.50495536548919
  O   2.82871923141929      2.34558517396808     -0.45867949260025
  C   4.00451065927564      3.15416449447401     -0.18557619406173
  C   5.19509215995334      2.46530025836201     -0.83549718812573
  C   6.30849769674998      2.30211959746042      0.21068646556434
  O   5.70630914400533      2.67626385068919      1.43608301514040
  C   4.40182980743613      3.07446676307429      1.31070951862789
  O   3.72345677056811      3.33170230492544      2.24413727723018
  O   6.66120545360858      0.90944884806033      0.23280040696630
  C   5.50749178113145      0.23011310677933     -0.09407212796812
  C   5.01484495084061     -0.97197773336040      0.37584755155230
  C   3.61809991182284     -1.16604517061049      0.29270313744649
  C   3.09131564067189     -2.41172772671232      0.75376428616559
  C   2.66947866269638     -3.46514035346213      1.13959257696006
  C   4.65680687592770      1.08152686613530     -0.74729131569700
  H   3.77427962299803      4.17651523015809     -0.47162391725606
  H   5.51404653604035      2.80746870403510     -1.81680639423125
  H   7.23138053045002      2.85709332137133      0.08122449577419
  H   5.62417057049994     -1.70455128263515      0.88308918519999
  H   2.28552176251100     -4.39507635929393      1.48563966990247
