23
Coordinates from ORCA-job 16255optt
  Br  1.24338795739670     -0.13979558458260      1.32292749343804
  C   2.84339752293155     -0.21694489279905      0.35690986189111
  C   3.53028891334005     -1.35908009637091      0.20696298588796
  O   3.19119717018995     -2.56524000306435      0.72648217310919
  C   4.00005288983287     -3.58921110230783      0.11241234626689
  C   3.19698538365845     -4.27155960699782     -0.97137763300568
  N   3.75499715815727     -5.42551092639651     -1.66379436733632
  C   3.62674609250575     -4.17014814136565     -2.38563397443921
  C   4.88090791068479     -3.39639938368422     -2.70210746993591
  O   5.77852320077658     -3.40066687555928     -1.60357314189013
  C   5.24691870282343     -2.86031776779666     -0.43286776568109
  C   4.75384133986242     -1.42229518736839     -0.53896304711654
  N   5.38416389887609     -0.51016751216948     -1.17722988063252
  C   4.92085093374373      0.79682187393415     -1.21908544475891
  O   5.46479822511106      1.68503624192475     -1.80299987932263
  S   3.39940755270281      1.26115229174715     -0.33680937448646
  H   4.24463814090864     -4.29558195867591      0.90511376212494
  H   2.14369717189715     -4.35596300471751     -0.73076421532867
  H   4.72669735765959     -5.56607951080015     -1.39459182827042
  H   2.87512304475568     -4.16664620453485     -3.16597057176090
  H   4.63817308285597     -2.36981472912562     -2.99237914322566
  H   5.42302416761777     -3.86616603847593     -3.52234745627914
  H   6.05418218171165     -2.87442188081329      0.30268657075207
