22
Coordinates from ORCA-job 16264optt
  Br  1.15626454486145      0.26211969350931     -0.37849773594462
  C   3.03337546348251      0.30499367586946     -0.23292938965446
  C   3.69694043546610     -0.86961001279907     -0.09305482194387
  O   2.95519609863359     -2.01211293911187     -0.12174563757885
  C   3.06021748172461     -2.80985988235268      1.03078392861063
  C   2.94358758053087     -4.26870675253159      0.79342365656934
  C   4.28720647925288     -3.65799360923814      1.09521352488445
  C   5.22694056083496     -3.40819472326672     -0.04661591591540
  O   5.85378055917172     -2.13764722951564      0.07346544153117
  C   5.15449809763110     -0.96446578620024      0.02303641995667
  C   5.91249269495549      0.14189624617575      0.07561919066137
  S   5.36214395453809      1.76518554622127     -0.01044245661965
  C   3.62460829333454      1.64280409872727     -0.30364649829686
  N   2.92178133376125      2.67735915129157     -0.51895245328513
  H   2.64196299296396     -2.35772446486704      1.92149822659456
  H   2.75538906003004     -4.57613463887059     -0.22627656298123
  H   2.46808162306490     -4.86573216685023      1.55700916617012
  H   4.73490598853773     -3.83743040570813      2.06313161606720
  H   4.70626744111979     -3.48312814098909     -1.00236139536123
  H   6.05452826636848     -4.11470581639662     -0.04637253609145
  H   6.98533503261499      0.03974757229761      0.16580186036353
  H   3.47549601712092      3.53134058460543     -0.53608762773629
