24
Coordinates from ORCA-job 16266optt
  Br  1.55839091666176     -0.00249140809513     -0.46817715229229
  C   3.42002412851765     -0.00096896233269     -0.26750407015184
  C   4.12192521787336      1.19676950294303     -0.26440888725404
  O   3.50291263627473      2.39741006736696     -0.38620305581411
  C   4.39996580067556      3.44055769893230     -0.09371227011745
  C   4.01799114391649      4.84051154405313     -0.35974481653542
  C   4.12850333056511      4.33864414007220      1.05887624325920
  S   6.06223258781724      2.84939936230552     -0.41022579413388
  O   6.39558943033804      3.03840760885924     -1.79176147128419
  O   6.97077601367218      3.31222766198393      0.59787597259062
  C   5.50471954380034      1.19572850552910     -0.16859259067845
  C   6.22979072578667      0.02633790062488     -0.03420361091150
  C   5.53648411718988     -1.17115803375309     -0.00739113706304
  C   4.15282215032631     -1.17478912769240     -0.13993299559605
  O   3.50821428129071     -2.39316260716298     -0.20779175235103
  C   2.79939117312552     -2.79268135911714      0.87837398116273
  O   2.75900887285072     -2.22232371607965      1.91742588819046
  H   3.02916165009789      4.98728887379871     -0.77071987085294
  H   4.78856893816085      5.49836549983707     -0.73887526801201
  H   3.20885346683563      4.14473881534872      1.59256980896761
  H   4.97888294665985      4.64737336346999      1.65114077818665
  H   7.30786449118834      0.05183152344245      0.04833535170631
  H   6.04515613532431     -2.11830439500777      0.10297944658858
  H   2.28577030105079     -3.72771245932640      0.63366727239607
