22
Coordinates from ORCA-job 16272optt
  Br  5.32276568284393     14.87698092561971     -0.11307765571575
  C   4.29394935582368     13.32795718502325     -0.05173210164098
  C   4.79634052004198     12.08408400491752     -0.01375150738914
  O   6.05805585248924     11.66669890685820     -0.00036378204635
  C   6.01632801887262     10.26954884565444      0.01316277373785
  C   7.08957925537259      9.46526039647674      0.02136234162317
  C   6.79307817242196      8.06137299398091      0.01827168291816
  N   7.64887780210014      7.08008114200850      0.01601112614024
  C   6.87524092482412      5.91031760207766      0.00364481109097
  C   5.53703071561328      6.13372525105171     -0.00100101964972
  C   5.39518715915685      7.56857557499409      0.00862246712449
  C   4.34186873315705      8.42031066638207      0.00766476934132
  C   4.64392632966498      9.81749564739750      0.01077019014131
  C   3.89629509230327     10.96053386449156      0.00162696121734
  O   2.58033610453381     11.12496600139198     -0.00254693048307
  N   2.03574111540799     12.40691370214899     -0.02303154013850
  C   2.85199971569203     13.39333518305961     -0.04778955917489
  H   8.10787936087170      9.82557032241652      0.02432587510116
  H   7.37853294718635      4.95437573113758     -0.00248983247601
  H   4.74509528286069      5.40368092865886     -0.01254646577989
  H   3.31216080976868      8.08687007329994      0.00052407056979
  H   2.36173104899302     14.35934505095257     -0.06565667451151
