25
Coordinates from ORCA-job 16270optt
  Br  0.42040076477586      0.65217307875683      1.38278872352285
  C   2.19732517938915      0.62410625313695      0.77767555375231
  C   2.78481002722864     -0.53876394837600      0.32163863280635
  O   2.19135853718032     -1.73983690142379      0.22951662627280
  C   3.14342338473461     -2.68109298756770     -0.27768091687888
  C   4.48326594944919     -1.91758144312100     -0.51136460797401
  C   5.39397920572338     -2.63062846734850      0.51238295931744
  C   5.67810022240113     -4.04212036387852      0.00408191842404
  O   4.38640894595341     -4.64628895394416      0.13428049210956
  C   3.58601395176979     -3.68120855680995      0.80828135274573
  O   4.49131133680651     -2.92574563612377      1.57829825663127
  C   2.53199117738574     -4.30152302435205      1.59064913478320
  C   1.63394781409559     -4.80829970575337      2.19286301992055
  C   4.10233643935563     -0.52190235303525     -0.11406472916357
  C   4.79550831870617      0.66901748512231     -0.09124089204400
  N   4.24378296728936      1.80456991706426      0.34266007500422
  C   2.98714326052196      1.77234802369722      0.76539711175245
  H   2.71422302037807     -3.18634635439870     -1.13809379005047
  H   4.86825608799454     -1.99236238474834     -1.52733183998233
  H   6.24159767183155     -2.05745530836396      0.87465023485806
  H   6.39328935682607     -4.56938976662549      0.63571206682446
  H   5.99796062802586     -4.07439843282526     -1.03753651031521
  H   0.83690937139869     -5.26160912646761      2.73292980206920
  H   5.82540635102306      0.72757647505858     -0.42803895639656
  H   2.56425002975564      2.70576248232728      1.11954628201052
