27
Coordinates from ORCA-job 16279optt
  Br  1.25170195669242      0.29188835046109      2.41339973442445
  C   3.06813656213073      0.26751823707621      2.00589201730324
  C   3.63509457196166     -0.69199853149292      1.24948701442826
  O   2.92396105068610     -1.72011439835566      0.74103055243742
  C   2.81111207989190     -2.90201176949865      1.56223365943824
  C   3.21774184282445     -4.14697128381494      0.75590402382688
  C   4.61209176464679     -4.10907836231356      1.43887044122538
  C   4.00384939046452     -3.16414981297604      2.49899308872867
  C   5.72535253661398     -3.52546551930368      0.57384603984308
  O   5.22880788418184     -2.62717121778513     -0.40750322015723
  C   5.60860788323640     -1.29122986638301     -0.30579008284562
  C   5.03740550308968     -0.52802560363966      0.87861360030806
  N   5.84038443600849      0.30711454949807      1.44246886231318
  S   5.34691183697027      1.03767986331320      2.81057106053242
  O   5.39862523012560      0.09286466578097      3.86814528745902
  O   5.90779308383071      2.32486906965575      2.93413764357928
  O   3.75764264770097      1.31332212982965      2.49300406056207
  H   1.81832810535935     -2.88627254371141      2.01093440759732
  H   3.18716331451446     -4.02414308472081     -0.32384914649339
  H   2.63952949627037     -5.02026461292557      1.05334094147031
  H   4.96440204483551     -5.05979140646370      1.83912209879004
  H   4.59377736751272     -2.31705944672052      2.85297793206957
  H   3.66379517116037     -3.71996087754862      3.37213848347839
  H   6.22440888484050     -4.33285182928107      0.03341523521808
  H   6.47338500276022     -3.03132261154770      1.20512809451493
  H   5.24476081210107     -0.79706491472719     -1.21055995374443
  H   6.69522953958851     -1.17130917240489     -0.25995187630773
