19
Coordinates from ORCA-job 16273optt
  Br  0.98955893558506     -0.14224282606188     -0.01652961486619
  C   2.87170096592389     -0.12467128744746     -0.02032274008337
  C   3.59782480719010     -1.26371893784860     -0.02090087340700
  O   3.16804823798377     -2.56714910502546     -0.01954302437879
  C   4.27804767577061     -3.34726548728474     -0.02209930344225
  C   4.26970286560867     -4.69865988435458     -0.02191264664049
  C   5.49874426065522     -5.42733439197711     -0.02621218202196
  Br  5.31906083151200     -7.30434338799334     -0.02616030894703
  C   6.72567461634273     -4.84587359485734     -0.03069909799619
  Br  8.33619476580687     -5.80410164019004     -0.03892650106883
  S   7.02667013650882     -3.13751626817976     -0.02986923538656
  C   5.44708385405928     -2.52188271014593     -0.02495715637211
  C   5.01380340689206     -1.21802070038033     -0.02380265797806
  C   5.72795732328942      0.03681854798443     -0.02571802018255
  O   6.94998207173622      0.10896971748237     -0.02750590682973
  C   4.79969076022948      1.18304833463381     -0.02507752610339
  N   3.51097782575767      1.07546745830530     -0.02259958379872
  H   3.33429993571128     -5.23973410009213     -0.01917657578730
  H   5.23197672343681      2.17821026343282     -0.02698704470949
