22
Coordinates from ORCA-job 16280optt
  Br  1.06446337780132     -0.15131969627613      0.53198008206413
  C   2.89107814205465     -0.17801798770181      0.08002425022587
  C   3.55957801015894     -1.37064546969190      0.09040161810116
  O   2.85522409084249     -2.43757700838295      0.50293095618114
  C   2.96407128672974     -3.74538860278852     -0.06762288510652
  C   4.08471341157111     -4.54825923922674      0.60671721622762
  C   5.02594047038662     -3.98296445785851     -0.47922615732207
  C   3.77688330425550     -3.78894649758752     -1.36971265401337
  N   5.62450506725758     -2.71991747360722     -0.06183448691740
  C   4.97558286977912     -1.49192924922932     -0.23856640247520
  C   5.68550304856265     -0.40968304793536     -0.62345307855981
  S   5.14301131523194      1.21113568108827     -0.70556543005054
  C   3.43344292166457      1.13573452282926     -0.23760386385635
  O   2.81572789799907      2.17127380598767     -0.22490851454112
  H   1.95032907986022     -4.13682981584647     -0.06099161105324
  H   3.92465446747831     -5.61938422033567      0.48753182836050
  H   4.31399610152166     -4.29960089903390      1.64041387290881
  H   5.81729181424310     -4.63399740001012     -0.84403446032341
  H   3.54237163361033     -4.69275375921121     -1.92827512243673
  H   3.73919884076686     -2.92495339221587     -2.03257616705005
  H   6.60625517518073     -2.65731307485779     -0.27757565275123
  H   6.73217767304341     -0.51966271810816     -0.88005333761219
