26
Coordinates from ORCA-job 16295optt
  Br  0.94210442514652      0.54102095354802     -0.51891487687844
  C   2.79171067351058      0.44553864691567     -0.28232815387603
  C   3.44575626010179     -0.70013648946594      0.03246911645582
  O   2.86321391883484     -1.90804884140390      0.15427494814266
  C   3.82691787309880     -2.69481652628883      0.86544310469394
  C   3.97082418562114     -4.18884118672250      0.77126639898113
  C   5.43108048098597     -4.32032376200414      1.33131616501684
  C   6.10392840423221     -2.89883097625245      1.27525364546716
  C   5.14122472653378     -2.18708563394066      0.34053400297202
  N   4.81409876269116     -0.76904768362256      0.26340581864932
  C   5.73456944778852      0.27739440511847      0.03217819765513
  N   6.99804089992187      0.16746408111206      0.06628904591866
  C   5.01631854796986      1.50138324881137     -0.25193645074442
  C   3.65452134940686      1.56251722090660     -0.40477825622340
  O   3.31775693066726      2.80304648853243     -0.67793164242560
  N   4.55358315450783      3.55118736636315     -0.69636713948432
  N   5.48359201777965      2.77329357223578     -0.45381028399376
  H   3.74527013964798     -2.40806632805517      1.92103871321860
  H   3.90881614203361     -4.52212973841220     -0.26426313342929
  H   3.24736857044241     -4.74356771770313      1.36287192585311
  H   5.99811907893593     -5.03649607257884      0.74078030721782
  H   5.41950940631338     -4.68806190503427      2.35511476364529
  H   7.12570927208878     -2.95263688535232      0.90756731870147
  H   6.11479827746513     -2.42480182614146      2.25680408120791
  H   5.29885911304563     -2.56112191786788     -0.67996645642306
  H   7.30130794122845     -0.77783249269728      0.28068883968144
