28
Coordinates from ORCA-job 16294optt
  Br  1.24967646086475      0.14374277906975     -0.17691649611376
  C   3.12195606469372     -0.00531984557094     -0.04903344929460
  C   3.72993923809361     -1.23445276886319     -0.16333324317118
  O   3.16954044339686     -2.41386914665141     -0.36464238216519
  C   4.18220153871011     -3.44873673914873     -0.19377335569076
  C   4.02549568732435     -4.15191464403821      1.15082472045705
  C   4.79916093336706     -5.46691906345619      0.95306360650316
  C   4.84505268415096     -5.70227106146890     -0.58302525039437
  C   4.00964301823312     -4.57136207709969     -1.19855842092741
  C   5.51384063468325     -2.68388965717998     -0.31007564467569
  N   5.07035900164804     -1.31749575022644     -0.08062556700080
  C   5.92438253717974     -0.22643362697467      0.10562163315041
  O   7.12780940698798     -0.38916234630849      0.13022216705422
  C   5.17161199823006      1.01504956988441      0.24355081751474
  C   5.93854700978628      2.26692664879337      0.48867075113084
  O   5.42643231045545      3.34484445597280      0.61410058367584
  N   3.86818110943155      1.06787064937286      0.15624955323682
  H   2.96254616899445     -4.34029427827771      1.30724887077749
  H   4.38830739593030     -3.54893554993426      1.98412756820939
  H   4.31446870090605     -6.28725045439136      1.47809522963651
  H   5.80868939853186     -5.38861624841724      1.35585812758021
  H   4.46649763815426     -6.68173840143981     -0.86677311945559
  H   5.87394271338550     -5.64447883940106     -0.94063684000306
  H   2.95116386577347     -4.83655176855149     -1.22516716160050
  H   4.31711788690976     -4.29052700010634     -2.20500493595151
  H   5.97300333494153     -2.76023043325572     -1.29763332988606
  H   6.24681581273892     -2.97236473222388      0.44151219012345
  H   7.02961700649692      2.12738032989255      0.55005337728039
