21
Coordinates from ORCA-job 16305optt
  Br  1.33697234350451     -0.27008569492698     -0.44628947164425
  C   3.11727031020960      0.01573464082991      0.07894439110341
  C   3.51323706156139      1.26037839458212      0.53770599262071
  O   2.99473017517532      2.54876364933318      0.40407334186100
  C   4.10006778995584      3.42006620550156      0.47079368489598
  C   4.37603805532080      4.67811107639975     -0.03758984130959
  C   5.75348953787843      4.96633549528986     -0.20287639456833
  C   6.82723941527188      4.07059095807410     -0.04123785984766
  C   6.50710359673326      2.79912181874795      0.45043152264786
  C   5.19282864649258      2.68347969206091      0.85013674155618
  C   4.83023933541237      1.35672612814739      0.89946087862771
  C   5.90004530908368      0.57979387935337      0.52078476603873
  N   6.98434449264953      1.46475177733016      0.37131899682535
  C   5.53276619232781     -0.68871878156726      0.07658715659468
  Br  6.89273653939230     -1.87944385975942     -0.45420589051296
  C   4.14958471015427     -0.96165004455793     -0.06085320053944
  Br  3.64363850359844     -2.70292994455794     -0.57349203007047
  H   3.62851257806756      5.37514536206785     -0.38597220819678
  H   5.99639346182248      5.94390076658104     -0.60000187301466
  H   7.81274184100098      4.35624312019925     -0.38060961198688
  H   7.90302010438690      1.18268536087111      0.07389090891940
