31
Coordinates from ORCA-job 16301optt
  Br  2.01149054703332     -1.67768902267386     -0.84429917256113
  C   3.08686126013340     -0.32575117429775     -0.12227973525096
  C   2.80729069227633      0.98169477074219     -0.28316481151162
  O   1.76027662952164      1.34265104903809     -1.07294912483322
  C   0.42526967743156      1.68426517583834     -0.58053882390454
  C   -0.05323364733683      1.01093886389789      0.74171193073601
  C   0.01254465586680      2.11200280973213      1.84486074915660
  C   1.06279768276208      2.98726400113157      1.17434682389278
  C   0.46244588620243      3.15207317538919     -0.22165401938941
  O   1.62904328079968      4.13475059523791      1.73987819541134
  C   3.04222294860399      4.12848000913074      1.55173351962719
  C   3.59009747045788      3.45099992970646      0.25899056232625
  C   3.76306954409449      1.93866734918311      0.30478973086074
  C   4.83327306735647      1.43826873748595      0.95181885858705
  C   5.08181514867642      0.01764232840868      1.11551381407761
  N   6.02568450388856     -0.57141083918594      1.70983344050081
  O   4.13872623293290     -0.81390770174497      0.53849539549372
  H   -0.20791253146131      1.42588644172051     -1.42429423776854
  H   0.59157803130319      0.17067182169665      0.99932880493898
  H   -1.05762020394205      0.61392984047152      0.60790104707231
  H   0.33685334201401      1.71497320877723      2.80503636827262
  H   -0.94316567719322      2.62149620660733      1.97365702278942
  H   1.86448682335378      2.27011132834527      1.10902722355682
  H   1.04416895858771      3.73796373859401     -0.92607138975791
  H   -0.53875303862550      3.58438159896643     -0.14596689612081
  H   3.51873476220544      3.64263932901568      2.41163946953503
  H   3.34460262623207      5.17487281244427      1.54129828038125
  H   4.58799688287380      3.87169188364218      0.12268432345888
  H   3.00697254304623      3.74704186148724     -0.60944848364289
  H   5.56434249383460      2.10300490202513      1.39514573656680
  H   6.67103940707009      0.10539496918681      2.10497539749879
