27
Coordinates from ORCA-job 16307optt
  Br  1.41102407711995      1.16482128794501      1.46599331782934
  C   2.91585806498467      0.59189610702614      0.52805247593107
  C   3.13647616739552     -0.71512227244336      0.25238634480114
  O   2.24828957442118     -1.60296868525677      0.70180353637484
  C   2.13935812348200     -2.96113287273103      0.24638024040366
  C   2.96955058637855     -3.89261860611734      1.14076108183062
  C   4.34701972652915     -3.35858599315078      1.52840298040743
  C   5.34075996768486     -3.23382836236404      0.38078847246909
  C   4.83608962485442     -2.43630932395750     -0.84144583978302
  C   4.35880795533313     -1.04467915152279     -0.48721972832386
  N   5.17761606797361     -0.13755870154111     -0.88219162445171
  O   4.93630454627256      1.16692390210807     -0.60960288357068
  C   3.84517695378627      1.62223251909411      0.09621128000576
  O   3.74799820951536      2.79529891722336      0.28300965150129
  C   3.83076212533191     -3.27934329007656     -1.60629471806984
  O   4.20399809455075     -4.09080615968772     -2.40959782405659
  C   2.37523437767425     -3.10619855762502     -1.25415366454549
  H   1.08632651358909     -3.17498925966272      0.42270542360606
  H   3.06092393616287     -4.85913393999540      0.63434686156517
  H   2.40267463849312     -4.06786774145867      2.05558982917370
  H   4.77333946136929     -4.02582270640773      2.27906602971899
  H   4.22459216770358     -2.39249006577916      2.02467295925389
  H   5.62508203335647     -4.22411576533003      0.01729413058113
  H   6.24956570333963     -2.74754231817839      0.73896068554232
  H   5.68188172270036     -2.29676196959665     -1.51302203236207
  H   1.83324000306970     -3.97332258072273     -1.62974039835736
  H   1.98204957692770     -2.22297440979115     -1.76815658747488
