28
Coordinates from ORCA-job 16303optt
  Br  1.17542225025185      0.28938453730620     -2.00984141528141
  C   2.86574053531187      0.17476084753033     -1.17731162423741
  C   3.16197101130670     -0.92070387767609     -0.37236080499317
  O   2.13942193361002     -1.85585572872454     -0.30815842479362
  C   1.88235153992117     -2.66424138141217      0.87934306927239
  C   2.28335529233373     -4.20379019304790      0.96618161383264
  C   3.77664805940766     -4.27486247612405      1.56001923390716
  C   4.09605498262242     -2.85584788519483      1.05745660445016
  C   2.89733487187207     -2.15564260643643      1.80996212019619
  O   4.04215466898283     -3.20783425129901     -0.38981832307955
  C   5.18963436802686     -3.76442080950183     -0.84743250520448
  N   5.33240797088905     -4.18123724351984     -2.02215640862987
  O   5.08009717480791     -1.86183184477484      1.03229521277580
  C   4.51163610704635     -0.87635072783740      0.19344228527885
  N   5.34095454585586      0.10390290355377     -0.01494013744538
  C   4.99744678706340      1.12801693483400     -0.79292838677255
  C   3.76956815061774      1.20557743361849     -1.40359055708747
  H   0.82534409688709     -2.52585593939184      1.09199690367588
  H   2.21609052746649     -4.72406732980810      0.01610845449024
  H   1.58150044736648     -4.65582909139359      1.66727053263915
  H   4.35272192758559     -5.06937190120697      1.09542367755100
  H   3.78825744481448     -4.39369010259999      2.63960914862242
  H   2.95922181174786     -1.07751339233589      1.90062742423750
  H   2.85399277409161     -2.58448338033872      2.80658303037353
  H   6.00394555285489     -3.82889091890414     -0.12848860536660
  H   4.48126017935976     -4.03260410682290     -2.56602746560787
  H   5.74226840980339      1.90230931975830     -0.92765551445132
  H   3.50119657809479      2.03897321174999     -2.03560913835223
