21
Coordinates from ORCA-job 16312optt
  Br  1.49336426127968      0.94450394825347      1.09941781605052
  C   3.18810765147857      0.60100892086160      0.41527747237543
  C   4.10456596275243      1.57126071832796      0.25041734059688
  O   4.00036817316334      2.90161436772718      0.52872192487430
  C   5.21621752528034      3.38616213503381      0.17052486245379
  C   6.07158569329159      2.47981490116853     -0.30754114452302
  C   7.27242039428576      3.19437402703852     -0.61303943354214
  C   6.98879994325076      4.47941206703740     -0.27369842447297
  C   7.77539462935797      5.74396257362529     -0.33170276458117
  C   9.11069090618871      5.51913025702660     -0.87480241832969
  C   10.20319784944372      5.32509296387352     -1.32088780359635
  O   5.69780289762385      4.61402959132412      0.22216194364128
  N   5.35056714729173      1.27882780890093     -0.26084734326420
  N   5.73858444580588      0.05327115408576     -0.62170573579072
  N   4.92845806132521     -0.89233421153293     -0.49172977876603
  C   3.58990455292856     -0.74233008744861      0.02598376069208
  O   2.88904082275996     -1.71630006390366      0.10840767754979
  H   8.20531289276200      2.84250231881687     -1.01606382525977
  H   7.85330862145604      6.17425798535242      0.67063306713500
  H   7.24545821526325      6.47529818098309     -0.94856439749545
  H   11.17684935301060      5.16044044344808     -1.71796279574753
