29
Coordinates from ORCA-job 16310optt
  Br  1.21433419506117      0.66378406421413     -2.20109397748236
  C   2.78505999106002      0.69431518925957     -1.16605383361195
  C   3.31931113964361      1.86017286860007     -0.74007297889495
  O   2.86254919253594      3.10083713171770     -0.93351639376468
  C   3.85682560208604      4.04071584324558     -0.46395758357265
  C   3.17771704653647      5.19271783999614      0.23695664553391
  C   2.31797370862192      4.72864784999924      1.43504244749146
  C   2.91141213794888      3.47365620523339      2.12470742350626
  C   4.42294722133509      3.40456678882604      1.94724194058163
  C   4.77065916322726      3.21631458536433      0.46773325834023
  N   4.45989820636330      1.86632952748357      0.01088220171956
  C   5.13659270889223      0.70540832692649      0.37250879379768
  N   6.20435140925242      0.63346120891608      1.06850831246409
  C   4.46833784549226     -0.49185389140842     -0.14640169661617
  N   3.38956094001883     -0.47896840101940     -0.84457220135906
  C   2.17209971543369      5.83205634545508      2.38395348284249
  C   2.07990730921915      6.73303504150486      3.16845149995768
  H   4.40989919812698      4.38649732093477     -1.33890966823772
  H   2.56567964276299      5.75328429251803     -0.46858298677236
  H   3.96063822530038      5.87025681087107      0.58518901430817
  H   1.32449944946877      4.47286180136933      1.06347338327197
  H   2.45558952217720      2.57871516895593      1.69418208286193
  H   2.64873973787494      3.48209680614515      3.18079126374538
  H   4.84390107075135      2.57930262798198      2.52323484397808
  H   4.88850249137997      4.32424366028997      2.31131697150668
  H   5.82253662869606      3.43314783537101      0.27435823639102
  H   6.55498755950858      1.54241926046177      1.35747143122247
  H   4.93352239112298     -1.44076620400099      0.09199377743066
  H   1.98496655010142      7.52874409478748      3.86816430936055
