22
Coordinates from ORCA-job 16326optt
  Br  1.20420485390993      0.63313175111714     -0.12860506298286
  C   3.04284260785715      0.31125395577290     -0.10023148044757
  C   3.90418034556229      1.34526934149727     -0.13067286473502
  O   3.56922819636102      2.67181528408469     -0.15430241277879
  C   4.76544882447244      3.31349093950993     -0.13275530328264
  C   5.83582828643891      2.48902953856254     -0.10090089035312
  C   6.99557420901492      3.30400927333217      0.00230653724372
  C   6.52827090832286      4.59783216112002      0.01483007942327
  N   5.14609583982555      4.60207249955201     -0.06167910759308
  N   5.27635673615232      1.19147617044791     -0.12176887624369
  C   5.83155252071637     -0.06767870241110     -0.07160841263691
  C   7.32066411235425     -0.06103186811982     -0.16546255806849
  O   8.05228898520703     -0.92338091962678      0.22098163827072
  C   5.01453271031854     -1.15124967605183     -0.02572188196032
  Br  5.73377435989945     -2.88496165752492     -0.00338570703093
  C   3.53268483513301     -1.06175003901634     -0.03273183566440
  N   2.70854695324552     -2.03231444405592      0.01307180515204
  H   8.03069270123527      3.01772619611119      0.05935430622960
  H   7.07394537654900      5.52325217123972      0.05955722627427
  H   4.55350267285091      5.41366704716622     -0.07640634419210
  H   7.71916977903465      0.84769419745988     -0.65078130498981
  H   3.18561418553850     -2.92835322016689      0.05891245036609
