23
Coordinates from ORCA-job 16335optt
  Br  0.89741497301363      0.19918872553063      0.27108644980903
  C   2.75675279650045      0.23790570050518      0.16614934479365
  C   3.44256656852881      1.39664206717558      0.02194380048749
  O   2.93965954370005      2.63335708646941     -0.10164243068040
  C   4.00725038129549      3.56924653253959     -0.06642699121823
  C   5.30588762660944      2.76467840530637     -0.28431489194111
  C   6.40963544017237      3.18556166382858      0.68401821466459
  C   6.34695285321292      4.67708779109429      0.88308559185173
  N   7.21125632933520      5.55755265710309      0.68770954487552
  O   5.14076423705020      5.09051740677817      1.41533174059751
  C   4.03058503744280      4.31417627348933      1.26640572052860
  O   3.16507884738849      4.30561008975709      2.07068806223683
  N   4.79794537974311      1.42946023940185     -0.03357283895077
  N   5.58736752730728      0.35752171024843      0.01532633005131
  C   4.99276897890932     -0.77668226136018      0.14773495919193
  C   3.52775243038022     -0.99113302519704      0.23519384879574
  O   3.06271051460592     -2.10642171889192      0.35169928368153
  H   3.84674537178035      4.30966269449436     -0.85068592536033
  H   5.65222077660852      2.84844939916702     -1.31598792930292
  H   7.38791030449550      2.88058890362914      0.32444315994681
  H   6.23058896105291      2.70519744811509      1.65011953552621
  H   8.07804953496738      5.15052023127208      0.34740402536767
  H   5.62313558589959     -1.65568802045619      0.19329139504764
