20
Coordinates from ORCA-job 16337optt
  Br  1.07189172256247     -0.24864578492305     -0.17693956567632
  C   2.92627865245812     -0.25353509205126     -0.00959143851754
  C   3.63268391361067     -1.40476486111957      0.00261154338791
  O   3.00085833256687     -2.59569396389065     -0.08681239690984
  C   3.79003101831727     -3.67844066823978      0.02036500911913
  C   5.12778227462955     -3.74572453436367      0.09365190422018
  C   5.42571233714806     -5.14635196907648      0.18384053135928
  C   4.23018482359065     -5.77278301803682      0.16140270435613
  O   3.20579916077446     -4.86576581839501      0.06134229671898
  C   5.92560139473875     -2.49265968055115      0.00895382000783
  C   6.65473807555984     -2.40265912976104     -1.27430730025472
  N   7.21577898917943     -2.37344928706053     -2.27142100191187
  N   4.99629938299325     -1.35879905244363      0.14655788022034
  N   5.65790927681411     -0.18584461629294      0.32440706031844
  N   5.05722229942648      0.89716471667644      0.33946029455526
  C   3.63268782267721      1.00479956777590      0.13518171884182
  O   3.13241264123176      2.09373727449510      0.11612351027630
  H   6.39307690003436     -5.61385857573214      0.25102185367115
  H   3.93254430858870     -6.80421425599010      0.20380292238944
  H   6.65550667309793     -2.39651125101959      0.81434865382811
