28
Coordinates from ORCA-job 16331optt
  Br  1.59013040784668      0.25378047840489      2.25283860410391
  C   3.08555227596708      0.22750133118004      1.14167375485983
  C   3.54187569271807      1.31875727793007      0.49204708684324
  O   2.89386855737520      2.50520202861332      0.60534248377816
  C   2.81580491646133      3.34306717330619     -0.54568401016443
  C   2.54156453958221      2.55983017962820     -1.83772153304025
  C   3.12853172789286      3.19202938408140     -3.09293067230591
  C   4.67364633472316      3.25426342346009     -3.11565728730514
  N   5.41198662265272      2.26016708907301     -2.35765425400428
  C   5.50877603748694      2.28834013573119     -0.90873712902866
  C   5.18655718475752      3.64491582332192     -0.29925006230178
  O   3.92120780134882      4.19401937478076     -0.60688831802179
  C   4.76459934230510      1.12884072673937     -0.24232644631174
  N   5.32880074474240     -0.02898345052660     -0.37807854253284
  C   4.78023659073155     -1.15369744984349      0.19004462586358
  O   5.14624028992526     -2.27300902219049      0.04893979372601
  O   3.68546176998314     -0.94871920293215      1.06222765235772
  H   1.97703126952157      4.00333337281296     -0.33304063008226
  H   1.45844511267051      2.47377676391266     -1.93588902314837
  H   2.91168414936965      1.53734037128655     -1.76785546624532
  H   2.73725032445551      4.20285697379033     -3.23019354052280
  H   2.77697851010216      2.60286429719812     -3.94275407398809
  H   4.99970902460192      4.23759757017068     -2.78434635721337
  H   5.00945665518362      3.16221277462776     -4.14973503272444
  H   5.38486610619940      1.32115262105163     -2.72659280163589
  H   6.55201440682370      2.09537830521590     -0.62996340968051
  H   5.91342810603932      4.37186480324924     -0.66012726707493
  H   5.30029549853256      3.56531684592644      0.78631185580039
