21
Coordinates from ORCA-job 16339optt
  Br  1.10861887569926     -0.46105445244179      0.04948416802758
  C   2.96959954714358     -0.31338460341651      0.05001805778804
  C   3.75855971176019     -1.40159561960451      0.05004291732513
  O   3.17853987352633     -2.65038275338562      0.04978230174740
  C   4.03103858281909     -3.65456187846166      0.04983427514247
  C   5.39561624376030     -3.55911699699918      0.05005852313852
  C   5.85563962154124     -4.90820121728664      0.04998234158836
  C   4.73851680277642     -5.68187599894618      0.04983400035363
  O   3.59272729134892     -4.88942722246674      0.04969588482178
  C   4.50945699101978     -7.12246172694142      0.04981868135109
  O   5.39943956371980     -7.93083779716780      0.04984948909079
  N   6.01679012732853     -2.33660975494759      0.05030109131096
  C   5.23002136100523     -1.30923559951266      0.05032361760778
  C   5.80288873447921      0.02356596227795      0.05062120998203
  C   5.03334303079452      1.11466468767736      0.05071021401146
  C   3.55636228159215      1.04478423172266      0.05047057171535
  O   2.87557765475667      2.04468607484168      0.05051184592650
  H   6.86953002317530     -5.27173517558048      0.05008926203193
  H   3.44555901387864     -7.41701133964542      0.04977656538463
  H   6.88405250674405      0.07179541711930      0.05080625686009
  H   5.44812216113079      2.11399576316527      0.05098872479447
