25
Coordinates from ORCA-job 16348optt
  Br  3.22345885269221      0.99337688658656      4.19076368987517
  C   3.74162909571451      0.74539745072101      2.40979224427705
  C   3.85172512586461      1.72828298819792      1.51714987957124
  O   3.28396754827341      2.98948774671881      1.73190773248348
  C   2.12566202613417      2.87421772392046      0.98095734273910
  C   2.03353151537328      2.91137297945529     -0.38417792777153
  C   1.05138180976634      1.94719500817975     -0.67655847522005
  C   1.03297437862141      1.17638989656398     -1.95999395302628
  O   2.37264140498182      0.81898399509584     -2.31078092648723
  C   3.01028022065913     -0.24059445411859     -1.62630618793584
  C   3.52750027968288      0.05594838099155     -0.22620745733197
  C   3.44601164171101     -0.83440565597050      0.76214519223722
  O   3.84502726616906     -0.55449988669581      2.04790249005634
  C   4.20601638395150      1.32762727095892      0.12232150375154
  N   4.93649084193153      2.05331091811823     -0.61140648379083
  N   0.47462939039861      1.47873066348021      0.42273498669493
  N   1.11532851209133      2.08692596806240      1.42869224686549
  H   2.74300111079399      3.35690490197456     -1.05577189352063
  H   0.67777061193218      1.75980754013122     -2.80803958587431
  H   0.40680048250330      0.28693691490213     -1.84370375001100
  H   3.85274089233424     -0.50343840023876     -2.27046859755498
  H   2.35078777630307     -1.11400538389687     -1.56910424100640
  H   3.07204197639504     -1.84511851749476      0.67706290784571
  H   5.00861663384684      1.66606713364104     -1.55303119391624
  H   0.92498422187445      1.82909793071539      2.38412045705002
