26
Coordinates from ORCA-job 16342optt
  Br  1.19416371507602      0.22006548220552     -0.11795015875356
  C   3.07804677306930      0.08335692053125     -0.06766475377229
  C   3.66723957580220     -1.18162485083507     -0.06804380764455
  O   2.88071054643093     -2.28504512791984     -0.11041474193387
  C   3.58727780846352     -3.45514901739029     -0.45334051833032
  C   2.81336010701326     -4.74611558667025     -0.25453632015564
  C   3.92918361771421     -5.80814055412937     -0.31324344199304
  C   5.23237108628592     -5.06422995661228     -0.01612809060038
  O   6.34182954153842     -5.48807101450365     -0.13231939555365
  C   4.86204767139426     -3.62515701821220      0.38523905485976
  C   5.83279673548840     -2.50917990342091      0.03277503894298
  C   5.06486220595115     -1.20833711041938     -0.01550272744064
  N   5.76816040843681     -0.07713609330992      0.01229664755883
  C   5.10031936506670      1.06129549502837     -0.00440805576521
  N   3.77510699584392      1.19044735195207     -0.03604763920986
  C   4.54181875585861     -3.64206026241635      1.81291864473906
  C   4.29708210985273     -3.67736717748394      2.98454428075440
  H   3.90666660200131     -3.37062215949489     -1.50216785434569
  H   2.04476648057427     -4.89088845145750     -1.01027046405575
  H   2.33923728960094     -4.72399307922540      0.72646159616367
  H   4.02826771153316     -6.26596859410923     -1.29850666174931
  H   3.79779715253757     -6.61554428807911      0.40656186567927
  H   6.28978519891610     -2.70435363807663     -0.94067697403741
  H   6.63919863366594     -2.41647236057535      0.75788213594442
  H   5.67731514515294      1.97768988570685      0.01201546582910
  H   4.08158876673133     -3.69939889108244      4.02652687486965
