27
Coordinates from ORCA-job 16340optt
  Br  2.86837520789418     -0.03965345379088      2.62579845295807
  C   3.81726066400006     -0.19336728522379      1.01860012343441
  C   4.46829911332877     -1.31474391935525      0.63774678738172
  O   4.73744834623038     -2.40305142224454      1.39262744849157
  C   5.55371817224680     -3.27128539237534      0.58870720172605
  C   6.47723952705873     -4.25163069604081      1.25193492021454
  C   6.95262691230008     -5.11928665170389      0.06647417483314
  C   7.42062720065763     -4.30335530844446     -1.14708503671360
  O   6.53217128690114     -3.25891171005336     -1.55149800702026
  C   6.28619356020873     -2.39926104536592     -0.45177229434980
  C   7.54785060947714     -1.53060575375962     -0.18106788656901
  O   7.22624522239908     -0.20642008128091     -0.73439709814886
  C   5.90400728833047     -0.12856697591799     -0.66660902814338
  O   5.35135931245953      1.02808744490869     -0.42600506420488
  C   4.03782569366342      0.99934975281468      0.21265445413651
  N   3.31192316580376      2.00906547446092      0.11352342904740
  C   5.26492675389393     -1.31952634085227     -0.56681894783009
  H   4.85465102321744     -3.84101097439357     -0.03194348200446
  H   5.96820315100301     -4.86566270083780      1.99489432071355
  H   7.31073595046627     -3.74404537135077      1.74483193811665
  H   6.12329910293377     -5.76188656039165     -0.23660504294280
  H   7.77289954143107     -5.77200088664046      0.36876245389304
  H   7.52258785153381     -4.95138870960038     -2.01544319552845
  H   8.41053342235427     -3.88130861415104     -0.93668420855978
  H   8.43826081730585     -1.87397545047973     -0.69630766398268
  H   7.75146539575147     -1.37659826029574      0.88073378674580
  H   3.75226570714914      2.75104089236589     -0.42505253569439
