21
Coordinates from ORCA-job 16353optt
  Br  0.87945482637806     -0.46616939258776      0.01962237530246
  C   2.73325426278897     -0.21719785935491      0.02680473152204
  C   3.56765786689877     -1.25037984081040      0.03003292348276
  O   3.20606812504304     -2.55956945072772      0.02927582975459
  C   4.35736674345415     -3.29782346462765      0.03189249547285
  C   5.45360772745230     -2.51028682368824      0.03474355695127
  C   6.81124632617262     -2.96319777127333      0.03747406706594
  C   7.05689783417175     -4.28267202010200      0.03722915873551
  S   5.87834324880789     -5.54386678598958      0.03415688762438
  C   4.28882873027514     -4.74018467913800      0.03155162052546
  N   3.18537974161609     -5.36070251135278      0.02938569077270
  N   4.97276444862460     -1.18022691980447      0.03402036627064
  C   5.73499626965903     -0.03846415242090      0.03543690229858
  O   6.94101938249417     -0.06388121597632      0.03775664143362
  C   5.01512629176727      1.30414201644778      0.03418931197137
  N   5.67735095179150      2.37492538611903      0.03638177269421
  S   3.26263962623251      1.44406972794323      0.02909645249679
  H   7.61676499579285     -2.24798746207856      0.03951602756708
  H   8.06947584449600     -4.66346205368037      0.03898832603145
  H   3.29418300351320     -6.37288137834264      0.02938092809582
  H   6.67657375257007      2.15781665144559      0.03906393393048
