25
Coordinates from ORCA-job 16356optt
  Br  1.33979074003613     -0.26777450000015      0.77450859313742
  C   3.16262159413470     -0.19134555246510      0.37248714670696
  C   3.77698880431673     -1.19376680074537     -0.31977107317201
  O   3.04240324753836     -2.24586782469040     -0.72655238034183
  C   3.71438234885331     -3.31341800074710     -1.42796372114685
  C   4.72535426930366     -2.70850473606506     -2.41007731229746
  C   5.79466227789047     -2.24134236137237     -1.40181192864587
  N   5.84971900405464     -3.43503743747872     -0.54984964564631
  C   6.62686302768457     -3.99863147010633      0.42117854725398
  C   5.83138192524978     -4.97194728005552      0.97687876404424
  N   4.58326733131517     -4.98451171063700      0.40404052689916
  C   4.63890832183360     -4.04555026440523     -0.49934081769943
  C   5.18454219589175     -1.10593232219174     -0.62924700221437
  C   5.86030298116724     -0.01468290729894     -0.21546654735422
  N   5.23909830938583      0.97220208869699      0.47174547109173
  C   3.88299706806613      0.98815670563763      0.81599056169716
  O   3.42614539669214      1.93219193950601      1.42273369238931
  H   2.92353891842668     -3.91048494867943     -1.86722928630837
  H   4.30414589199663     -1.88699121916512     -2.98609786909536
  H   5.11841655127048     -3.47680520100702     -3.07300907307353
  H   6.76438653109342     -1.99467221974062     -1.82775892847648
  H   7.64359680460757     -3.70402512254629      0.61234686839614
  H   6.09869285429256     -5.67154753592235      1.75136341647600
  H   6.91468938163665      0.12334410272868     -0.41493005738985
  H   5.74910422326178      1.78794457875058      0.77883205476984
