24
Coordinates from ORCA-job 16357optt
  Br  1.64277612753712      1.63575092108303     -1.01464044886428
  C   3.27636119578572      0.99053049658997     -0.37858573618528
  C   4.38730371438262      1.75660329076624     -0.43432965172004
  O   4.48351503395370      2.99103460611722     -0.95747275205727
  C   5.77925010116240      3.52138181299968     -0.67659541080220
  C   6.65015735250275      2.30492289349895     -0.22046919533451
  C   7.39817217274745      2.72864917686577      1.05865695943450
  N   6.67385072919639      3.92617892222063      1.43133517445757
  N   6.75465112589552      4.68597476379895      2.50530488485338
  N   5.93654907792623      5.67843041828026      2.31760258293945
  C   5.33371394947778      5.55631731053422      1.10694682978401
  C   5.81129443197536      4.41189714879269      0.52084161104771
  N   5.60078227662181      1.33258736567827      0.02712162934077
  C   5.74613135117335      0.06989780112877      0.53932685272180
  C   4.69204239453405     -0.75638627016774      0.62579088762810
  C   3.34986220981048     -0.36465083790298      0.17360630627259
  O   2.39198228350646     -1.10883814001415      0.25160440068294
  H   6.13224625249034      4.00174566855611     -1.58581964914346
  H   7.33458541993991      1.94698340229219     -0.98995946629109
  H   8.44270318909802      2.96310913889535      0.85703085058837
  H   7.33978766978155      1.97784295129110      1.84500039025460
  H   4.61118707564025      6.27225493450549      0.75859606775976
  H   6.74470731526784     -0.19710545068165      0.85855950526688
  H   4.80338754959282     -1.74911232512838      1.03654737736566
