22
Coordinates from ORCA-job 16369optt
  Br  1.07890916583445      0.16143108059448     -0.02428045075777
  C   2.94120250795079      0.21153683328837     -0.02650503357252
  C   3.65996190787284      1.35197973631353     -0.02728377240386
  O   2.99972008040487      2.53339134027838     -0.02696166824343
  C   3.71809507542385      3.68530184215072     -0.02725846545408
  C   3.23478134144191      4.92730894376896     -0.02709489273188
  C   4.42198795955569      5.82100404084999     -0.02737265501430
  N   4.47663020223752      7.08971799835354     -0.02735962325331
  C   5.62070456546010      4.94995780434039     -0.02781725483942
  C   5.20204667673664      3.67417662326246     -0.02776394855146
  C   5.87071814181493      2.40390742624356     -0.02818740441782
  C   7.29421200950576      2.34467738549090     -0.02863298344473
  N   8.44243188308642      2.35336828684294     -0.02909938308106
  C   5.11177333580176      1.26571514630314     -0.02815385011375
  N   5.69519776432164      0.01453361234018     -0.02877904172395
  C   4.95286597188931     -1.02734405363976     -0.02836964484527
  N   3.59449279974269     -1.00064381125098     -0.02714800693666
  H   2.20501065007192      5.24502193668265     -0.02678839584458
  H   3.53983854853659      7.49452192396151     -0.02711189469679
  H   6.63464207944395      5.31716756796821     -0.02813574082757
  H   5.40196619537967     -2.01391827784096     -0.02902310285559
  H   3.05681113748665     -1.85281338630220     -0.02687278639022
