20
Coordinates from ORCA-job 16365optt
  Br  1.05775476829980      0.20048937788861     -0.04378128445768
  C   2.91907944452128      0.24898801904878     -0.05433117174174
  C   3.58676529464570      1.41292438408203     -0.05742140700153
  O   2.93996472065385      2.60372555232003     -0.05566314164826
  C   3.69901785928133      3.71198794486971     -0.05650657237360
  C   3.38457248512472      5.01930604401477     -0.05584839081281
  C   4.72058828356975      5.67667255526715     -0.05730894546870
  N   5.72854895305086      4.87412620600482     -0.05923824926266
  C   5.15031382110183      3.60637606667796     -0.05930326599876
  N   5.77480605431034      2.49324138114246     -0.06284034740151
  N   4.97789289327097      1.40531337291029     -0.06275049699514
  N   5.69570426445844      0.23970572544870     -0.06560518855913
  N   5.11033388987868     -0.84702154592464     -0.06461210431335
  C   3.68143002178166     -0.98598160125750     -0.05994982109015
  N   3.15485221331778     -2.13438382799377     -0.06083397564548
  C   2.13171906793147      5.67078209602298     -0.05544426468089
  C   1.08586017791746      6.25677629647685     -0.05575564568057
  H   4.84647586099944      6.75239644730951     -0.05668551087560
  H   3.88471460385510     -2.84582177253139     -0.06511344870159
  H   0.15360532202949      6.77039727822260     -0.05600676729085
