32
Coordinates from ORCA-job 16370optt
  Br  1.30649266989206      0.61827573040526     -0.53571444901763
  C   3.12949337840683      0.20393701001436     -0.38576531601826
  C   4.07598859108837      1.16662479205065     -0.50632000587609
  O   3.77738147775856      2.46536728636789     -0.74803538103962
  C   3.44237392047458      3.25931061421658      0.40961800253395
  C   3.32298389226072      4.70523779347424     -0.07474779600705
  C   4.59100711378149      5.50905663573847      0.22007504224209
  N   5.75579693512583      4.64734592840747      0.06198669386907
  C   5.87813838569424      3.65423735631611      1.13046108938864
  C   4.47978116340543      3.13962704598892      1.51890130875771
  C   6.84523561973633      2.55876657259533      0.67083867116210
  N   6.47029100094355      1.85945355254910     -0.55675835017298
  C   5.48436333146898      0.85068661822711     -0.42950687907200
  C   5.81429325456764     -0.44209036004862     -0.24212356174425
  N   4.85403490016250     -1.40313204148956     -0.09143704403110
  C   3.47574445313250     -1.19653137574866     -0.15743487895125
  N   2.59415522273858     -2.11232915497345     -0.03533244469007
  H   2.48146503930227      2.89748092825229      0.78163175569712
  H   2.46544490484830      5.18248854877488      0.40177028756824
  H   3.13202163568535      4.67528732258031     -1.14721534913405
  H   4.53636727983095      5.93839278022870      1.23241146662633
  H   4.67479021594182      6.34325245340257     -0.47565868649457
  H   6.60488392501052      5.19461050604192     -0.00002442378980
  H   6.31967056582686      4.10035905150988      2.03581901680195
  H   4.09288317595486      3.73137714810374      2.35213931498677
  H   4.54337061282771      2.11147072929266      1.88112620642356
  H   6.97429985765111      1.82092742294271      1.46575539250778
  H   7.82195550946985      3.02286833905698      0.50192720429485
  H   6.15587050752793      2.55885886870767     -1.22363258322148
  H   6.84355855422513     -0.76858892885112     -0.19981374780204
  H   5.15072779641513     -2.35649095830196      0.04261522187470
  H   3.01113510884399     -3.02813821583246      0.11344422232736
