25
Coordinates from ORCA-job 16371optt
  Br  1.10810296311018      0.53583422421583      0.15544865633991
  C   2.96393942891162      0.35326155177275      0.07993334337955
  C   3.78582359488700      1.45613213028991      0.01743597336419
  O   3.39712337065626      2.74391285405970     -0.01728862433819
  C   4.56657591748606      3.54588870846461      0.18091418370525
  C   5.80158408563549      2.64938658670260     -0.10934735415267
  C   6.95053936763433      2.90728709857488      0.87769807357789
  N   7.06049779757232      4.31424775979263      1.23464497664228
  C   5.90832788637878      4.75920988581814      2.00534263140838
  C   4.59986330333994      4.08759272719590      1.60931076595925
  O   3.67475842353453      3.96716888911665      2.35996553195487
  C   5.16746775292706      1.28731571179878     -0.03320039680241
  N   5.78305329985258      0.12320828379746     -0.01997726663451
  C   5.00219424100092     -0.95404163226645      0.03944540986266
  C   3.60873949306102     -0.89235142305107      0.08546072673875
  C   2.86652917187736     -2.11591702278228      0.13658538129261
  N   2.30136326842408     -3.11328970780463      0.17360371722834
  H   4.50551659559717      4.39647388951410     -0.50077315538054
  H   6.15423620920767      2.82695785502626     -1.12926695282873
  H   7.89037179017505      2.54898122742049      0.46223040113962
  H   6.77502517815542      2.34481286743808      1.79927753392622
  H   7.21969869231446      4.89167018582059      0.41914940326049
  H   5.78398639775533      5.84015878395157      1.90991352893031
  H   6.05568213924697      4.54804019726258      3.06762640076478
  H   5.48899963125836     -1.92094163212911      0.04986711066168
