23
Coordinates from ORCA-job 16374optt
  Br  1.05910709299327     -0.06190056300014      0.08295778174793
  C   2.92059519686534     -0.09045124944095      0.08117607897022
  C   3.67697167418884     -1.20601939101910      0.08754637150904
  O   3.24636888618411     -2.47995390926984      0.09602859981645
  C   4.37844495731047     -3.27287138332996      0.09828754097935
  C   4.35553546152294     -4.61790123029260      0.10462697878127
  C   5.62874130127409     -5.32132987286595      0.10577746147270
  N   5.80398851108423     -6.59524115158281      0.11051845708997
  C   6.83378904178885     -4.48103974859436      0.10102425041786
  C   6.81854629767921     -3.12809148849143      0.09445802811105
  C   8.11479206171781     -2.42790750651686      0.09091775703693
  O   8.24882559141039     -1.23071726423219      0.08678510438719
  C   5.55317265774799     -2.43951484467866      0.09234369354497
  C   5.10491062365643     -1.13548877448964      0.08523432535763
  C   5.64544173420376      0.19448644020226      0.07640846292063
  N   4.89290793092972      1.25295991539506      0.07055871450905
  N   3.57349957118038      1.10957413646675      0.07296763268448
  H   3.42609597939114     -5.17059547928143      0.10823060202815
  H   4.90862151302410     -7.08279393331240      0.11337551661670
  H   7.77532865932153     -5.01893350693895      0.10290145686672
  H   8.99491127208628     -3.09538060689013      0.09252354698735
  H   6.71019240661994      0.36451369822622      0.07424408123993
  H   3.04621157781911      1.96859771393714      0.06710755692442
