21
Coordinates from ORCA-job 16385optt
  Br  2.07651740493469     -2.24691744339102      1.51677580141921
  C   3.19219759169472     -1.07058714675891      0.59036347775773
  C   2.84194213260469      0.21408214865453      0.39609707993893
  O   1.65740497187491      0.61971195267812      0.91991943809726
  C   0.93081864263986      1.57483910627543      0.30540130411285
  C   -0.38299102592868      1.62528573319670      0.11233018991572
  C   -0.63271004637617      2.98661709233774     -0.43822348089182
  N   -1.71735529592091      3.52209927229128     -0.79097635648510
  N   0.60302289003949      3.70284612588851     -0.53230295131672
  C   1.47711879313919      2.88767769839101     -0.11210729307559
  O   2.76878118829236      3.23295410424916      0.05114230991196
  N   3.76634176259272      2.41696864040352     -0.44751000705078
  C   3.77324936742392      1.14246787750403     -0.28904078409891
  N   4.94983233860710      0.61861425338994     -0.86101821778548
  C   5.25116883271405     -0.59750432183797     -0.69525678789485
  C   4.45679866980224     -1.58713070334145      0.06639536298282
  N   4.81017638848754     -2.79308633793096      0.23874898299304
  H   -1.12934409393547      0.87747067034054      0.32624821828272
  H   -2.49522728904537      2.87506014136886     -0.66091728713049
  H   6.17684207246920     -0.96036470261337     -1.14162826987027
  H   5.70841470388987     -2.97810416109572     -0.21044072981225
