19
Coordinates from ORCA-job 16383optt
  Br  1.00384624538742      0.71560661508107      0.03827886460787
  C   2.81222134253483      0.25212424956502      0.03478400705624
  C   3.75792512804807      1.23067236531469      0.03269643114282
  O   3.50899650508642      2.57717057017571      0.03348923094288
  C   4.73851325504291      3.14784514394472      0.03112638281441
  C   5.75840235160225      2.25488975100339      0.02871204911040
  C   6.92825312886271      3.03602675857054      0.02727283369750
  N   6.59353876416915      4.31860166194240      0.02873172845237
  N   5.24236139787654      4.38219363827157      0.03117745341854
  N   5.11939162333584      1.00675422704101      0.02973231935170
  C   5.51675367761724     -0.29176873557313      0.02908046049853
  C   4.62658379299431     -1.31700424379561      0.03153712458210
  O   5.35648654020086     -2.43538491742247      0.03035898976759
  N   6.68222022287858     -2.06230626254354      0.02712834703098
  N   6.77737120521459     -0.80939442128240      0.02627883712875
  C   3.16747513683783     -1.17133840426686      0.03466142538174
  O   2.37689793750144     -2.08706258973604      0.03714023831301
  H   7.96395515665601      2.74460956679483      0.02531165068077
  H   4.77880658815298      5.27476502691506      0.03250162602180
