21
Coordinates from ORCA-job 16388optt
  Br  1.11330017380596     -0.18610031005591     -0.09193752700851
  C   2.97735357289766     -0.07882649579436     -0.00215413571096
  C   3.62555442765635      1.09413407372302     -0.36380836658087
  O   2.87496819647955      2.14379529069262     -0.78973715779900
  C   3.19576499003015      3.39751911649694     -0.36285895433494
  C   4.38377333992150      3.93070531163321     -0.00208929109306
  C   5.74502361326741      3.33486640440142     -0.00474896106598
  O   5.72398853269350      2.16577757323264     -0.81262947068694
  C   5.03121895969369      1.10465178065806     -0.33025564671640
  N   5.74609100817784      0.08262454440739      0.09043278354295
  C   5.12607322526598     -1.02618336418200      0.45913621286160
  C   3.74209870450430     -1.16765343777126      0.42156459170068
  C   3.14903845535821     -2.40525159241068      0.82723206866741
  N   2.71047847547182     -3.40996320181925      1.16427990716196
  O   4.20177237332863      5.20865103306678      0.34393691896985
  N   2.87529589621347      5.53850556298711      0.20632589433319
  C   2.27378359278111      4.46589863759044     -0.21021376788354
  H   6.09067183428177      3.08797821979341      1.00271571811760
  H   6.45897051202096      4.01919825339748     -0.46027237352406
  H   5.74064160615766     -1.85319325279975      0.79328655092539
  H   1.21113850999242      4.47286585275267     -0.39320499387638
