26
Coordinates from ORCA-job 16395optt
  Br  1.14037528166894     -0.05683289111997      0.19492621907337
  C   3.00931388514808     -0.11298858882524      0.10195295010014
  C   3.69358063879592     -1.26739515435255      0.23000067822926
  O   3.04248776864493     -2.45297334590524      0.46076754967887
  C   3.80199116274425     -3.60743299224855      0.11680036626923
  C   3.02214021371689     -4.82396819317368      0.57038828173206
  C   2.09208800827716     -5.07138390812146     -0.61527846861135
  O   2.83043829770719     -4.63749160630791     -1.76440479098204
  C   3.79160097516932     -3.76117326326030     -1.41888704040591
  O   4.48982469480695     -3.20472891794112     -2.20400953810666
  C   5.18897565076616     -3.49108891253626      0.71086075250248
  O   5.86256206460977     -2.31945061993670      0.29315625601874
  C   5.12963531268332     -1.19290613098706      0.17086941119978
  C   5.76257712730107     -0.01461494674990     -0.02845434497086
  C   5.03251518109230      1.22363319509942     -0.17234063540139
  N   5.46927819959646      2.41094143053552     -0.36210679119468
  N   3.64605686273802      1.07174088862249     -0.07414093586045
  H   2.49546355431410     -4.63859626322019      1.50360880175411
  H   3.70284377187283     -5.66730637931930      0.69927593704896
  H   1.18036947504815     -4.47735789926667     -0.54738010844494
  H   1.83833895997926     -6.11753995101408     -0.76259974568835
  H   5.81209558977097     -4.32835004343161      0.40007003807142
  H   5.09658622069135     -3.49481774058597      1.80236283732460
  H   6.84128867806049      0.00582222462403     -0.08303044136021
  H   6.48180388166763      2.41697248342538     -0.41940049774432
  H   3.10876854312842      1.92128752599697     -0.17000674023189
