24
Coordinates from ORCA-job 16396optt
  Br  0.96174134518613      0.66667068636099      0.77877122150075
  C   2.76218470176650      0.36751770655692      0.36644711551571
  C   3.23805298235918     -0.89195780977938      0.17401775288675
  O   2.54792115045734     -2.02923091719719      0.26157659919903
  C   3.36953827119879     -3.12067410144123     -0.21979437236848
  C   3.31844718322734     -4.28552764895507      0.74399879590084
  C   4.54980276762045     -4.15148129524316      1.63662039576666
  O   4.75058916616879     -4.78989281651811      2.62589234882281
  C   5.49537408437694     -3.10265821761426      1.05998115234342
  C   4.81275524647918     -2.55207627156846     -0.19296062705952
  N   4.53875525480186     -1.12483084136854     -0.12478483104440
  C   5.54137774344007     -0.15474385096358     -0.22395301726048
  O   6.69036918944829     -0.49309182038779     -0.42672425734082
  C   5.03303295197257      1.18755735882760     -0.05480981324843
  C   3.71869609389193      1.41783635755731      0.23136962287851
  C   3.28758948565004      2.78050987597680      0.39943531604970
  N   2.96571118844602      3.87296963930789      0.52734746448463
  H   3.02668859373631     -3.35934747821227     -1.22494497551350
  H   3.39564298582622     -5.23716192468508      0.21282257244251
  H   2.40236408762840     -4.30660845638100      1.33196320911304
  H   6.46403815772862     -3.55461924250762      0.85103529027405
  H   5.66472223939978     -2.32661769410742      1.80823743413231
  H   5.37489484389087     -2.76633778863391     -1.09842983890928
  H   5.73771028529829      1.99979655097662     -0.14711455856580
