25
Coordinates from ORCA-job 16391optt
  Br  1.13709007692942      0.00528258343650      0.28057566430535
  C   2.98593057027731     -0.15059792652479      0.11263172083981
  C   3.62812511720398     -1.32673301823834      0.21153462217640
  O   2.96153888626113     -2.48087514641580      0.47784473041071
  C   3.63630106919004     -3.64758231537224     -0.00473531963227
  C   2.85725871837743     -4.88611860099722      0.44678654529362
  C   2.26056388683496     -5.41252765591994     -0.85784779101026
  O   3.21635779075295     -5.05668016836728     -1.84101547124538
  C   3.58637726328075     -3.72990307229684     -1.54883106117893
  C   5.04442744861245     -3.62491417195466      0.54680622615703
  O   5.75125754340014     -2.45553683541992      0.12965385035563
  C   5.06418450716708     -1.31241902842712      0.06792591130131
  C   5.71265457450584     -0.13999036240778     -0.16181837941013
  Br  7.56722884792448     -0.08050912702876     -0.36949276534307
  C   4.99880755770316      1.11547255177591     -0.24673727867980
  O   5.44598482292926      2.20443411588428     -0.42631184582833
  O   3.61308910800218      1.00432004276070     -0.09069146525763
  H   2.11691479553269     -4.61523440511405      1.19655939741758
  H   3.53811323401887     -5.62304226730605      0.87530947743165
  H   1.30176281359237     -4.92634421192068     -1.07180769577933
  H   2.12910533448951     -6.49145111663004     -0.88319336557655
  H   2.82990645082419     -3.02104459862615     -1.90866797595160
  H   4.54056645241889     -3.52055636718280     -2.03140000575237
  H   5.61797632396152     -4.46923278888704      0.16868281799796
  H   5.01947680580933     -3.65621610881984      1.63923945695860
