26
Coordinates from ORCA-job 16390optt
  Br  1.12199688378125      0.14747648448026      0.08641026058510
  C   2.98115429403813     -0.04640610505606      0.08203866886352
  C   3.56753543997114     -1.24684699990853     -0.16753438725152
  O   2.78080468558717     -2.31492869906873     -0.39661953138107
  C   3.44965264712138     -3.45427386272205     -0.90593809326709
  C   2.67305912696533     -4.74956876550925     -0.77667354564232
  C   3.82602008916575     -5.77449175059404     -0.67572302173624
  O   5.05482812337871     -5.04365474005548     -0.57700928416402
  C   4.70774026637133     -3.75754673831995     -0.11769186205955
  C   5.72559015293290     -2.68125902977644     -0.38760449778453
  C   5.01452925211264     -1.36351917757593     -0.14297037660237
  C   5.69477855608104     -0.24608898591004      0.14999191166914
  O   5.13623145614762      0.94232741977508      0.38150766635138
  C   3.76113397772561      1.14458359128399      0.35961500117619
  O   3.35687101724883      2.24771415567414      0.56464005365672
  C   3.69369996127128     -6.70728672408550      0.51660228942747
  O   2.64278547121518     -7.05051931521355      0.97389489644071
  H   3.72591947844776     -3.26373570055846     -1.94893466200806
  H   2.00926241900862     -4.94771124357530     -1.61314653982612
  H   2.08296638353740     -4.74617405782983      0.14039434063441
  H   3.89880332259842     -6.40717488095444     -1.56466531538919
  H   4.45099955276743     -3.77967735955466      0.95276819962699
  H   6.05028456511417     -2.76544349417115     -1.42796699829557
  H   6.60475570556641     -2.76446989828687      0.25050511854051
  H   6.77359617495208     -0.21075706013672      0.22647278928873
  H   4.65800099689236     -7.06456706235045      0.92563691914677
