23
Coordinates from ORCA-job 16408optt
  Br  0.98899770768040     -0.05401335757548     -0.12727349709730
  C   2.85934512837680     -0.20826850440110     -0.01075214937991
  C   3.47596466199023     -1.42513526270497     -0.33775008681391
  O   2.63515168132689     -2.42825880988709     -0.67408616554872
  C   3.19788643326348     -3.65956866481500     -1.04965194530010
  C   2.16003974958874     -4.75549409386639     -1.11940839476949
  C   2.92512965873069     -5.97926160140294     -0.64738014111068
  O   2.63639500923259     -7.12127626320506     -0.76000164502313
  O   4.06202231203893     -5.57544080738925     -0.00222922989133
  C   4.18660525592484     -4.18019703731264      0.00008826617707
  O   5.50541442575980     -3.88894197856871     -0.35962788057681
  C   5.80478970113499     -2.61079015001069     -0.70733453459754
  O   6.81980904375595     -2.38760098976354     -1.27823266079598
  C   4.87803875924222     -1.47149161707018     -0.28632171661240
  N   5.59815694434850     -0.41404406721711      0.09653678366620
  C   4.99864433703928      0.70545379734495      0.43925721281245
  C   3.61703591252609      0.86617169672433      0.38628391694702
  H   3.73147712797169     -3.55168042901925     -2.00063604746860
  H   1.72573751892272     -4.92427920591981     -2.10002024654341
  H   1.35652208397598     -4.56172674497889     -0.40494529840833
  H   3.96305459974857     -3.79139027382182      0.99927994823163
  H   5.63549458081693      1.52142215824447      0.75970816493393
  H   3.14928736660366      1.80581220661618      0.64349734716935
