26
Coordinates from ORCA-job 16402optt
  Br  1.90596032594474     -0.76132263434902     -1.34519966720497
  C   3.28818433233053     -0.10283369125281     -0.28645383692739
  C   3.56860457787172      1.21292132349327     -0.17098911195575
  O   2.92918021493546      2.22686732121161     -0.76901709549979
  C   3.60006139294934      3.46256516899588     -0.47592519270926
  C   2.82338986362993      4.45346956193466      0.34749189548163
  C   1.88369396854691      5.46336701971500      0.97089164005864
  O   2.52231628958507      5.43365019787233      2.30026304986945
  C   3.79772158927022      4.89725152904316      2.56366521141900
  N   4.48510642763280      5.43781193319181      3.47231174096636
  N   4.29919704788875      3.62999562482387      2.06698407299658
  C   4.67462029809465      3.15425318423133      0.67956278466737
  C   4.64482100047397      1.65626508434328      0.66515519832851
  N   5.40129690109995      0.86178349118030      1.33069472821396
  N   5.12831725211054     -0.43312991931274      1.20180715295196
  C   4.11565869112179     -1.04634859845431      0.45833794150807
  O   3.99961432700391     -2.25020105336669      0.47107081347853
  H   4.07525109678664      3.81244355872621     -1.39086229224821
  H   3.70989740245646      5.06061817278986      0.54721015362979
  H   2.63446375039370      3.73839362102132      1.14130394778677
  H   0.85585209141110      5.14297154350539      1.11586966785549
  H   1.93434261975069      6.48233509059657      0.59294590401539
  H   3.99254004369766      6.23698203259489      3.86194584385604
  H   5.06382700373443      3.39181553957980      2.69015848576926
  H   5.64519554581292      3.56370340434467      0.39449236147087
  H   5.72088594546603     -1.05962850645969      1.72828460222168
