22
Coordinates from ORCA-job 16409optt
  Br  1.69960101938649      1.06089693116708      2.51207666928915
  C   2.84937796263593      0.56933963329757      1.10127386278337
  C   3.62469110069893      1.51949098270682      0.50545551711120
  O   3.15623217911790      2.82679257439972      0.38774304383969
  C   1.94214414857570      2.69113785331221     -0.26898340335460
  C   1.63411461898573      1.68188506652744     -1.14093996564370
  C   0.27753232917307      1.36259815342586     -0.91273528352499
  S   -0.41378587593243     -0.22445058632140     -1.17588990894294
  C   0.30959806455663     -1.28034416029441      0.10554583413584
  N   1.40626425299329     -1.40241986899967      0.71645925004473
  C   2.61330238987054     -0.71665568161334      0.48472023023484
  C   3.50327445349677     -1.23187557872236     -0.38628728318316
  S   4.98188852659549     -0.48028596540627     -0.84083219507741
  C   4.78565073679898      1.22101097241887     -0.33639555451431
  O   5.59627458627794      2.03384270002099     -0.69355100512547
  C   -0.24062344064356      2.31934295933020     -0.06233077738490
  N   0.78644597714403      3.13644599248553      0.30919428983216
  H   2.33852700404697      1.05916881003578     -1.66786024536585
  H   -0.45230244658406     -2.02401284843577      0.34473554645480
  H   3.29804981399373     -2.17004030184113     -0.88400412986836
  H   -1.23968040447314      2.45342742960833      0.31445653563501
  H   0.74842300328506      3.84570493289794      1.02214897262490
