20
Coordinates from ORCA-job 16415optt
  Br  0.98751293094929     -0.35946705094113     -0.16092413117598
  C   2.83875683998643     -0.20259475580958     -0.03131259157691
  C   3.63277555473115     -1.30289821271096      0.00350952611365
  O   3.06451116822033     -2.52800041297280     -0.04877447129463
  C   3.89671287231512     -3.62267775097720      0.00543967956925
  C   5.24567899401551     -3.52104984409552      0.08358676123150
  N   5.85396424569666     -2.32215969002991      0.11683672952528
  C   5.06437133198400     -1.15755497490322      0.09204716904208
  C   5.58814697356775      0.08192856083631      0.14764521048843
  N   4.77830215134726      1.17600753269411      0.11909801643980
  C   3.38947615980804      1.14993323976817      0.03365346192947
  O   2.75487031154386      2.17959419284704      0.01998458210915
  S   6.16670948060058     -5.00944325437517      0.13821245536742
  C   4.58693184721491     -5.94311527979271      0.05220712082890
  O   4.52954047187409     -7.11872151195813      0.05517526070255
  C   3.37962524049582     -4.95309436375669     -0.02502205853974
  O   2.25361454860380     -5.36002181616725     -0.09626157494500
  H   6.85688624744905     -2.25287146472679      0.17312538425240
  H   6.65197221804672      0.26124816912351      0.21497700568722
  H   5.17564041154961      2.10295868794796      0.16279646424516
