18
Coordinates from ORCA-job 16419optt
  Br  2.04331994264589     -1.29263983163777      2.67162062123968
  C   3.00601082671418     -0.55812309095755      1.24197224069048
  C   2.52119435048504      0.45579750952609      0.51574311658912
  O   1.26616288263797      0.93743362675679      0.86324299496630
  C   0.85392911702938      1.98634608054558      0.15832605741933
  C   1.54560227532853      2.54076428094550     -0.84459712884744
  N   2.77374495384707      2.08490032060086     -1.28102099738865
  C   3.23231886642315      1.08294598038277     -0.62136561997926
  N   4.46465397009160      0.57474710561356     -1.02020010693780
  C   5.04875115753260     -0.38055939436704     -0.43003404104869
  S   4.55024736369895     -1.30785822827272      0.95777689137685
  C   0.69974699382706      3.64744253399138     -1.31955847989839
  O   0.82129174096657      4.45204795962626     -2.18789447173281
  C   -0.52568724577231      3.52826299697226     -0.35324774544185
  N   -0.40122699643605      2.56526227365958      0.47271745716064
  C   -1.64567831050713      4.41160148421263     -0.39790550080908
  N   -2.51761463763863      5.15157987576413     -0.47914553862745
  H   6.01223274912611     -0.71595148336233     -0.80842974873098
