22
Coordinates from ORCA-job 16417optt
  Br  1.09075042587711      0.35908642522677     -0.04029843482641
  C   2.95105011051988      0.21967602668831     -0.05663373797071
  C   3.72353406779219      1.32187454124944     -0.06294289114422
  O   3.16377570666112      2.54344043823267     -0.06109625082615
  C   3.97072709332236      3.67459599526374     -0.06813906451896
  C   5.32344377161935      3.57353329699035     -0.07202518746031
  N   5.93121318183446      2.34795947172257     -0.07132826035552
  C   5.16862934926959      1.17988724834167     -0.07096894481251
  C   5.68223930697664     -0.05229097332631     -0.07576878543212
  O   4.91810307310622     -1.16714673670735     -0.07343667071463
  C   3.53761966512581     -1.11893942594767     -0.06403669092869
  N   2.86000121318995     -2.17858589485607     -0.06322776568368
  S   6.35884679289540      4.95718760880530     -0.07818797479718
  C   5.24028358194210      6.40328093642026     -0.07700187242934
  O   5.77895960845102      7.47603918205750     -0.07785942394860
  C   3.82605357900969      6.13419711615934     -0.07500567557171
  C   3.27079951296365      4.89891223164020     -0.07061966242302
  H   6.93610187149807      2.28736844626681     -0.07378084449988
  H   6.73952333982291     -0.27409474092136     -0.08114668535031
  H   3.46261798451945     -2.99843289069873     -0.07062326229350
  H   3.20248900251239      7.01795997481048     -0.07627078614478
  H   2.19023776109062      4.81149172258207     -0.06860112786778
