26
Coordinates from ORCA-job 16429optt
  Br  2.38960517867379      0.42351940970282      2.60471985726524
  C   3.44791878697300      0.26151923658297      1.05996928262825
  C   4.18566465791055      1.27808709011889      0.60307909437847
  O   4.39805329201667      2.45974059047054      1.27759966915526
  C   5.13907728313034      3.25502627503053      0.37265041918696
  C   6.00993348011836      4.44165824020913      0.69240485563855
  N   6.59014957950776      4.62410236527154     -0.66542113365985
  C   6.40419439326713      3.41125965722054     -1.50800284793706
  C   6.05948583918011      2.33829448743367     -0.44683574709899
  C   7.42045236803770      1.71279938231311     -0.05453933731368
  N   8.52602287065622      2.16852020067104      0.33375358475535
  N   7.28563195969557      0.35348840879612     -0.43797084318120
  C   5.94974304402373      0.00732978805766     -0.43120146273283
  C   5.18921068406551      1.12611136403305     -0.44612234963008
  C   5.41518785714938     -1.31683337536082     -0.11869527785840
  N   5.98081822936833     -2.44129318551284     -0.25982904171692
  S   3.69251375805008     -1.33363721587114      0.39337940233263
  H   4.41053279390799      3.61467047368750     -0.36416899841476
  H   6.75103575654150      4.20607958044392      1.46189226011732
  H   5.44949886148818      5.32504986760244      0.99416340755498
  H   7.54858543624664      4.93606262545367     -0.64376168354682
  H   7.30828416910329      3.19252418721988     -2.07064221931546
  H   5.57701003741834      3.54751019234769     -2.20548145910162
  H   8.46545702976202      3.14994381240222      0.58443229293318
  H   8.03392585238912     -0.29332958769860     -0.23798704347474
  H   6.88900680131863     -2.35920387062556     -0.71638468096380
