25
Coordinates from ORCA-job 16424optt
  Br  1.12444698211988      0.04041383028341     -1.28304604481161
  C   2.91682993630543      0.13013584921230     -0.73858308820791
  C   3.76002980489454     -0.91567773300644     -0.91870760181568
  O   3.41348974636791     -2.15010485984603     -1.32650171409521
  C   4.43282236472283     -3.10349168505574     -0.91016280257776
  C   4.16574399928023     -3.75343947019147      0.45065404751676
  N   4.91871715903168     -2.94571239132277      1.41409511216162
  C   6.17510079180971     -2.51667995939723      0.80482426217834
  C   6.58550581432036     -1.09904352409990      1.29538022917904
  C   5.58326102580435     -0.23250617983208      0.55436438657516
  S   4.81123186052662      1.19934132564539      1.08206038009633
  C   3.31114214344764      1.31275613654380      0.01479797264342
  O   2.68366433509056      2.32646412032165      0.12949808130204
  C   5.11080902397702     -0.91541153826573     -0.49309886535917
  C   5.71419833967100     -2.28344473058779     -0.65526461175219
  C   6.75365769870263     -2.41010280083231     -1.66462370166320
  C   7.61222494749308     -2.54201808826404     -2.48924267389836
  H   4.50896236697865     -3.82654126297040     -1.71517596442162
  H   4.52067855962402     -4.79072957292359      0.39679428616263
  H   3.10321177640649     -3.76119854940235      0.69196413924374
  H   5.04562936575817     -3.40822272483499      2.30370981185574
  H   6.99008900923962     -3.24360145649153      0.88435740084446
  H   7.61724829161708     -0.87057839818790      1.01705489777614
  H   6.48767575640865     -0.99473421922079      2.37603485323228
  H   8.36862890040180     -2.65487211727345     -3.22918279216499
