20
Coordinates from ORCA-job 16422optt
  Br  1.19727797548938      0.76976234133218      0.53064217863749
  C   3.00433416918518      0.47610526771287      0.20079206799862
  C   3.88885606730507      1.48968631037008      0.11275846420981
  O   3.69186010519214      2.81710373699494      0.22880099934379
  C   4.93880466232647      3.39100450264266      0.05487290103880
  C   5.87162018902007      2.43322604051942     -0.16260057815284
  N   7.10847177222545      2.96529718514649     -0.33317563243179
  C   6.93793716401047      4.33659923988048     -0.21479143620444
  C   5.59312389938177      4.63979909170451      0.02980441424510
  S   5.36428824446987      6.33099547083227      0.18042192289624
  C   7.04891280716050      6.60900955583405     -0.08281544970667
  C   7.77690789552333      5.47738667316157     -0.28053730785580
  N   5.21857105884582      1.21183752947833     -0.12990959189108
  N   5.72430669699450     -0.01819826246484     -0.28667682070770
  N   4.94237354477075     -0.99186546218120     -0.21695317531609
  C   3.52276618852430     -0.86966266223041      0.02342295398551
  O   2.85979312559736     -1.87334154309915      0.06293565742692
  H   7.96392160874643      2.46730016161952     -0.50588843636662
  H   7.41364882361655      7.62311942182035     -0.07708629340306
  H   8.84122400161454      5.46783540092585     -0.46001683774619
