24
Coordinates from ORCA-job 16420optt
  Br  2.61819846047552      0.20569647947236     -3.20971373347863
  C   3.52096356578434      0.50692407363369     -1.58695894633699
  C   3.46468123512960      1.68511339744345     -0.96510247382373
  O   2.53190275888933      2.63305170763456     -1.24540562350796
  C   1.32313557884504      2.47177333796762     -0.47872020062285
  C   0.93412206722039      1.04409911169418     -0.00072362806207
  N   1.19438726800802      1.45813739916662      1.37677154460863
  C   1.41560959475667      2.86662575358976      1.01893052610483
  C   1.56994750091552      0.83763877371541      2.53996123932238
  N   2.10942411911471     -0.29190480950829      2.78337562553497
  C   2.69245258173995     -1.10308096096627      1.74332699663325
  C   3.66637138445874     -0.29751731608304      0.88779217957772
  S   4.08591354569865     -0.93546867820049     -0.74721588005821
  N   3.96246726561500      0.88282788432038      1.20549841599964
  C   4.30377141872931      1.85794526705324      0.27515654711932
  O   5.03512875245748      2.78377160908783      0.47309541193354
  H   0.56575118457807      2.99390366168709     -1.05383356346932
  H   1.50517443606981      0.20198411294519     -0.38477334915621
  H   -0.12547771417290      0.83418388815702     -0.16349192856812
  H   2.38778262323634      3.26029176010441      1.32054346036669
  H   0.62458133607789      3.54265617368317      1.34940161715737
  H   1.36306577103365      1.46884120814921      3.40657962367357
  H   1.95635659763029     -1.52290232025815      1.04748570411072
  H   3.20128866770858     -1.95459151448896      2.20102043494144
