25
Coordinates from ORCA-job 16430optt
  Br  0.96482215627083     -0.22634379007648     -0.32025988639421
  C   2.83069946441127     -0.09664877701919     -0.15074172411032
  C   3.48295570639500      1.11154746726260     -0.31214319324727
  O   2.73063641359719      2.19775569058606     -0.58335733903260
  C   3.40126123123331      3.46634170709955     -0.65072105822188
  C   3.91718127865994      3.88603476741542      0.72939513611365
  N   5.32815138747453      3.44744906728316      0.74237791627775
  C   5.51115029498618      2.57403276782316     -0.42022639000872
  C   4.67557179946867      3.30820671583800     -1.46441878876229
  C   4.89989599610631      1.20108834693526     -0.20649675291865
  C   5.61337415183617      0.06637071859969      0.10162905068786
  Br  7.49818102881884      0.13058993368773      0.31375756628038
  C   4.97554657989907     -1.16705148929766      0.28610508493828
  C   3.58288148747446     -1.22840208475695      0.14796548293692
  S   3.07268326409211     -2.84702622740780      0.42149093767597
  N   4.60519962082734     -3.41620432370989      0.70208478800299
  C   5.48421384943517     -2.46939914572948      0.60700490540556
  H   2.66265147965621      4.14612672922644     -1.06469958656325
  H   3.30945930466737      3.41776563180669      1.50685321391683
  H   3.85601903190103      4.96871748294961      0.85310975206168
  H   5.58555494113664      2.98964133591668      1.60723336202939
  H   6.56288158301394      2.49169529674164     -0.68023968333493
  H   4.51814902002127      2.74963168899645     -2.38491503281997
  H   5.11851781401479      4.27925762229197     -1.68027066703247
  H   6.53136111460231     -2.69217713246270      0.76848290611930
