21
Coordinates from ORCA-job 16437optt
  Br  1.14259944119417     -0.04616899158115      0.01973077296143
  C   3.00938166467567      0.01424649278781      0.01844412637049
  C   3.70154241216248      1.17710179720648      0.01743352296420
  O   3.00697456081441      2.35889861155322      0.01706349655149
  C   3.76214468034783      3.47346452479330      0.01633688743951
  C   3.45307119986021      4.77139431335887      0.01581328948606
  N   4.65581230860570      5.56497900782129      0.01518451479859
  C   5.66905351410006      4.78640136589686      0.01537796303232
  C   5.22857219394222      3.37415987321504      0.01599177730066
  N   5.90326047915158      2.29716922784900      0.01624846642667
  C   5.13656131261459      1.12140134574963      0.01694844434617
  C   5.79538870215505     -0.08556419332388      0.01724165267545
  C   7.21026121739991     -0.16998389660113      0.01702351112432
  C   8.40303752029707     -0.28534906778744      0.01691772830573
  C   5.05016455631895     -1.34776285419422      0.01799798898141
  O   5.52385608022719     -2.45978790098852      0.01820675863030
  N   3.66510250934838     -1.17482105596989      0.01859268636230
  H   2.49230927354881      5.25736308846363      0.01579387929686
  H   6.69361971099927      5.12999237994231      0.01502537513857
  H   9.46226223272670     -0.38422961574475      0.01633156649806
  H   3.13102442950970     -2.03390445244647      0.01929559130941
