26
Coordinates from ORCA-job 16431optt
  Br  1.02657574786862     -0.08893037589856     -1.48606671436944
  C   2.66842410678784     -0.15762243667324     -0.57547498922509
  C   3.20563160102657     -1.42316846816224     -0.31732509319737
  O   2.52933944280838     -2.51325011533965     -0.71466250427804
  C   3.17258452390990     -3.78455426713198     -0.50335941775344
  C   4.38123855109810     -3.93425728345340     -1.42980437016320
  N   5.53475276242616     -3.51060434634712     -0.60451463826513
  C   4.98533362022993     -2.90081262967084      0.61184628151890
  C   3.79835458919907     -3.82278203837700      0.88454514734735
  C   4.42453051617537     -1.51947651581569      0.35714714357540
  C   5.04636913827870     -0.34217838900084      0.73636455078097
  N   4.56082344048107      0.86113371485375      0.47839538227795
  C   3.39644430109069      0.96033328945342     -0.15969638549669
  C   2.94506813805905      2.38141159332897     -0.38005638304083
  O   1.84018583074795      2.69042047963227     -0.73801935854834
  C   3.94990992876562      3.41092819015212     -0.12071125342082
  C   4.69623057106148      4.32978661548084      0.05762992856314
  H   2.39242369563075     -4.51906020555553     -0.67920404563927
  H   4.23910796523401     -3.31954492618212     -2.32073446716507
  H   4.50263728019131     -4.97200349216364     -1.74514756448544
  H   6.14329449339894     -2.87475517332717     -1.10361012129286
  H   5.73105941342454     -2.87676401223691      1.40556071571204
  H   3.12509471895630     -3.46569523931928      1.66136793489968
  H   4.14246023380113     -4.83005602875297      1.11497549227488
  H   5.98813877633938     -0.38147395309893      1.27592455517711
  H   5.36798661300902      5.13897601360578      0.22063017421360
