27
Coordinates from ORCA-job 16435optt
  Br  1.38219210380197      0.03906844202505      0.18263360127064
  C   3.25716436731491     -0.15938745436536      0.09820412631950
  C   4.03423111500841      0.93568460394875     -0.25370258198272
  O   3.53097774844489      2.13180430650666     -0.59399974270327
  C   3.41206869228520      3.15352381738181      0.42884343964571
  C   3.81613248094463      4.46045052475119     -0.23975435970170
  N   5.27904029145063      4.42279256457669     -0.29246929717603
  C   5.74802859338036      3.61540702616997      0.84806359867905
  C   4.47024694345613      3.04967782304360      1.51561115526936
  C   6.75130048325971      2.56168214284616      0.39950910982326
  O   6.23777470429286      1.71495512010877     -0.63603962018305
  C   5.42135656373607      0.71349370262055     -0.25519267845749
  N   5.95123335219777     -0.44400053279301      0.07748875068422
  C   5.10135184676211     -1.41726996202004      0.38123806428972
  C   5.65371429042206     -2.76461327464237      0.76455726234497
  O   6.81992489793070     -2.99326677721487      0.88016187653024
  N   3.77593710065576     -1.33368928776590      0.39684499449667
  H   2.38968571759557      3.12838373860194      0.80718748971621
  H   3.47689179328214      5.29958944224591      0.37354044643510
  H   3.39029450418038      4.56495862228115     -1.23589353052964
  H   5.54937063198491      3.95458638837905     -1.14995632573032
  H   6.27986742309859      4.25027042703797      1.56282038740632
  H   4.15503860533225      3.70164101558926      2.33103650683233
  H   4.59463755842884      2.05307668037157      1.93841144212456
  H   7.08188758080950      1.94950068781365      1.24244167901778
  H   7.62015216317387      3.04541072550975     -0.04460916856758
  H   4.87149844676973     -3.52373051300792      0.93602337414616
