30
Coordinates from ORCA-job 16433optt
  Br  1.18247223562661      0.01124062351090      0.18785896211093
  C   3.06219731518258     -0.06145338848866      0.13923672753348
  C   3.70271224610683     -1.25533797792613      0.06295103430296
  O   2.96781582394570     -2.38800165024906      0.02965190177400
  C   3.64973130825220     -3.54920959873177     -0.37959087709096
  C   2.89615953622342     -4.83881776490847     -0.11597333582191
  N   4.00609329144703     -5.78746530748219     -0.05349912955760
  C   5.30348339022285     -5.14947659895547      0.15452890476527
  C   4.90232061880979     -3.71093335390990      0.44811353551579
  C   5.83272634504521     -2.58323351919264      0.09353633567506
  N   5.08437056213468     -1.31943279905625      0.02831009012172
  C   5.88582512366841     -0.14816796934761     -0.05948659590202
  N   7.15550544348141     -0.14907084674320     -0.21673946116857
  C   5.16585501877608      1.09893310901652      0.06691589039742
  C   3.82512254572730      1.13739091724575      0.16649437867299
  C   3.88428713493505     -7.11581037341072     -0.33950113915735
  N   4.79531378518143     -7.99886860484367     -0.40044972534469
  H   3.90564452799866     -3.47096492815764     -1.44391159007144
  H   2.19647193858845     -5.10264301945092     -0.90773998548918
  H   2.35281403065721     -4.76233641355474      0.83120860576563
  H   5.92422020504925     -5.22591955603646     -0.74707959762894
  H   5.84574851627232     -5.61471379472500      0.98047109917278
  H   4.60010683998409     -3.62708903544605      1.49641420035347
  H   6.30508830005927     -2.76724255781993     -0.87781235086651
  H   6.62296408842365     -2.45719333459937      0.83605924401389
  H   7.56988732217400     -1.06594274607007     -0.32590815961541
  H   5.77173165197760      1.99233199963346      0.06081778015770
  H   3.30129805899072      2.08053351989312      0.24887726883047
  H   2.85398127440487     -7.41473106403326     -0.53483543001422
  H   5.72005152065321     -7.62137396616054     -0.19891858143474
