22
Coordinates from ORCA-job 16432optt
  Br  1.08046304214370      0.27898861942916     -0.03179598649534
  C   2.94954188354700      0.19759142416777     -0.03208082735158
  C   3.69167260585244      1.32575842644989     -0.03251800322726
  O   3.07489941055585      2.54278690298308     -0.03285268335144
  C   3.84363548149689      3.64522408819569     -0.03330260386254
  C   5.22611004134558      3.59435047962678     -0.03336067033236
  N   5.67296720843490      4.88810500036101     -0.03380914070207
  C   4.60283732569033      5.72373778640724     -0.03406524748350
  C   3.43475423098953      4.98623261085827     -0.03375319392607
  C   5.91511418967756      2.36055769043792     -0.03295757800829
  C   7.34002624275344      2.34197002562147     -0.03294305461380
  C   8.53794611727337      2.39286612738472     -0.03290866046240
  C   5.13243792859789      1.23130062932947     -0.03258574885095
  C   5.68334646370492     -0.10374073001546     -0.03219849554792
  N   5.00512954409939     -1.18531930377251     -0.03189346486078
  C   3.58450183304832     -1.13136038698799     -0.03191226298746
  O   2.94875625485049     -2.15497952340995     -0.03164070502258
  H   6.64149082316047      5.16095182880843     -0.03407258236105
  H   4.73626708521251      6.79208036588148     -0.03447488574370
  H   2.42913360031241      5.36759161865725     -0.03383462357844
  H   9.60279179113773      2.41445491535612     -0.03285441049111
  H   6.76917689611523     -0.18414859576986     -0.03218517073937
