26
Coordinates from ORCA-job 16449optt
  Br  1.15313181894413     -0.12990291923814      0.60826829835590
  C   2.93434493304262      0.00753597782615      0.08750803561637
  C   3.51246505571338      1.18362317334609     -0.23962061567526
  O   2.76646701284402      2.31982995985814     -0.24141252646685
  C   3.39866417433553      3.50453104595857      0.22622562712024
  C   4.08147076167698      4.21358694247728     -0.93383314539494
  N   5.03590514599032      3.38809078117297     -1.65676617753907
  C   5.74087643551738      2.35309439961606     -0.92813647845227
  C   6.52423063766496      2.88246782654475      0.28758179023155
  C   5.73376975478992      3.64398613193970      1.37714181022455
  C   4.29801240369393      3.19539520647192      1.44535357768806
  O   3.83501170265660      2.59014768509787      2.37257665371987
  C   4.91176632186460      1.11524007333872     -0.55700483351189
  N   5.57590425909939      0.00093154898564     -0.55390079044606
  C   4.96575182985474     -1.19303610292497     -0.26169665290577
  O   5.46898346534931     -2.26740304713605     -0.25332935958066
  O   3.58676663513296     -1.13926970459277      0.05438799984992
  H   2.59200565703343      4.13380166632134      0.61037553849991
  H   4.55797857775377      5.12510585903470     -0.56289488508771
  H   3.31102684252415      4.53063575386512     -1.63587092504493
  H   4.62822375464842      3.01226825428293     -2.50089871630670
  H   6.49675070800441      1.94627642425386     -1.60087980762058
  H   7.31137046606347      3.53091852798477     -0.09589046311983
  H   7.00630287999584      2.01692673375510      0.74202774284623
  H   5.75369715830359      4.71494665712132      1.16900384764747
  H   6.18312160750207      3.48327114463891      2.35468445535246
