22
Coordinates from ORCA-job 16443optt
  Br  1.19703399043219     -0.11432555947958     -0.39117387625620
  C   3.03883418900478      0.13176114604630     -0.25613066132489
  C   3.65880483227675      1.24822151506756     -0.66410021680535
  O   2.95420470270944      2.27070759509160     -1.23592388432745
  C   3.13013268483104      3.45494210788865     -0.55892787530797
  C   4.34141736225026      4.05555658927251     -0.40547279206872
  N   4.16772362833510      5.19343324499780      0.31433345086689
  C   2.83631253740423      5.32628956576629      0.61747474578214
  C   2.16277156974137      4.25072374952167      0.10080470380151
  O   5.57196467318990      3.72787645593523     -0.88202488138634
  C   5.98987828966792      2.43940111926594     -0.98368941452111
  O   7.08416804988715      2.23534035006150     -1.40466530643855
  C   5.09991000422874      1.30962273223748     -0.51502325000401
  C   5.74443723719406      0.26568959238030      0.03441526953894
  C   5.03632641332481     -0.91709508255558      0.50208941788296
  N   5.49615307910650     -1.94009835171414      1.07318451255047
  O   3.67173671876686     -0.92105912954727      0.27414164277521
  H   4.90194234637812      5.84188056876482      0.54074135473090
  H   2.48030925523769      6.17265094922647      1.17699640944436
  H   1.10813227156308      4.04934843619856      0.17523737554390
  H   6.82120911791497      0.27574871769166      0.12822916187514
  H   6.50159704655501     -1.86361631211779      1.19248411364816
