23
Coordinates from ORCA-job 16441optt
  Br  1.59411785700987     -0.38295375388269     -1.20353210492282
  C   3.36192173587378     -0.34371713189845     -0.59707831908162
  C   3.95586636044505      0.84676132667787     -0.35568951644844
  O   3.25265675672506      1.97499204513073     -0.61907555528070
  C   3.81430861887206      3.23271131607353     -0.29094200347358
  C   4.68438906508744      3.08634366727419      0.95332834788567
  N   5.80495461005433      2.28336164888776      0.43844558135905
  C   6.21002654213637      2.97870210978296     -0.79086225742328
  C   4.91257936454558      3.58548028519313     -1.34009542540244
  O   4.76197315250574      4.22522429279287     -2.33199307855802
  C   5.33259094522057      0.96559716797820      0.14453460978470
  N   6.14265004476461     -0.00315503579782      0.28913589044476
  S   5.75187395867900     -1.56717000558648     -0.01114783919517
  C   4.02709969302322     -1.63470369276851     -0.42124649203931
  N   3.42395201864474     -2.73564283714972     -0.58446184223556
  C   2.72427244592843      4.27185836800748     -0.22165568926809
  O   1.55914363659323      4.02737047660426     -0.27682704532458
  H   4.17108643654316      2.57755662962158      1.76766071510620
  H   5.05785884643522      4.04970543358227      1.30395419136490
  H   6.68572422385323      2.30887717927248     -1.50480125953732
  H   6.90519823247667      3.78867973208838     -0.55710832253031
  H   4.02253040739461     -3.54517685905192     -0.42717350792161
  H   3.10722504718799      5.30329763716789     -0.10136907730241
