28
Coordinates from ORCA-job 16450optt
  Br  1.74737316887104     -0.58046508239742     -1.58992190349834
  C   3.37368532791964     -0.37026935904053     -0.68907476812245
  C   4.09560099511534     -1.42693171315702     -0.26454867093096
  O   3.62905794134278     -2.69309076611056     -0.51238547862243
  C   4.57258616376354     -3.70503341069416     -0.31595269514896
  C   5.24961619186882     -3.45364940485443      1.02489620019165
  N   6.07727406785689     -2.26966112694101      0.88826724331845
  C   7.42118867411688     -2.47160552641434      0.29214808127861
  C   7.66921356919114     -3.89476526548891     -0.19813491817809
  C   6.66247411566142     -4.39514897523030     -1.25771944105500
  O   5.48965333149578     -3.61114095023832     -1.37232590493234
  C   5.35007845690728     -1.17424059681358      0.41469797383599
  C   5.77384073555253      0.11628595320523      0.55458770913323
  Br  7.35004704020665      0.50773614827113      1.50549972709607
  C   5.01733394655315      1.26627111421933      0.07431670672996
  N   5.27950752817218      2.51299013930127      0.13792386752350
  N   3.80657817788663      0.90349592329516     -0.51097524347415
  H   4.01864210030099     -4.64702643470731     -0.35510657270879
  H   5.84297972381252     -4.29901686227565      1.35712874633698
  H   4.47740893018480     -3.28221948265985      1.77637440903047
  H   8.18865583412962     -2.21968953836905      1.02437691799197
  H   7.52525496398251     -1.77619639818906     -0.54246501587448
  H   7.71159558558846     -4.57657971207606      0.65152179910491
  H   8.67090025244068     -3.90592725879875     -0.63103467685551
  H   6.39852904767868     -5.44160051078498     -1.06604053834062
  H   7.11207202605522     -4.34664548860917     -2.24755067324014
  H   6.17112840888276      2.68180609367705      0.58915354846327
  H   3.23872369446200      1.67631849188130     -0.82765642905280
