22
Coordinates from ORCA-job 16452optt
  Br  1.35023363481124      0.64110381232741      0.08954806864404
  C   3.18538877437685      0.32366771832002     -0.02154940069076
  C   4.06902872167214      1.34382159468455      0.00181255329858
  O   3.78320403562580      2.68047817367151      0.10047970797965
  C   4.99346629141780      3.30232123551518      0.08421504680195
  C   6.01178037212964      2.42438562414885     -0.01364333725248
  N   7.27085013291095      2.90615788216104      0.00387463491159
  C   7.20779169678441      4.20210713560911      0.12723510568427
  C   8.39916616003268      5.10337152478736      0.12893303322610
  C   8.70402255024219      5.61233188670482     -1.27095534391114
  O   8.82572540708151      6.77155479458819     -1.53434228918487
  S   5.59515814655547      4.88744787098046      0.21733762422525
  N   5.43350821478788      1.15691446845346     -0.07193471207282
  C   5.96310901657917     -0.10244550716682     -0.17575307337377
  C   5.14166378385554     -1.16595112792596     -0.20581103591445
  C   3.67894622560087     -1.05185347123011     -0.13061157846242
  O   2.94298561260792     -2.02049335246074     -0.15601844647860
  H   9.25261352525109      4.51094242267741      0.46783472863081
  H   8.26656594276203      5.95984954194014      0.78853900439223
  H   8.80825356858566      4.82765830613662     -2.04369327470723
  H   7.04116051894712     -0.14968482297487     -0.22770218946244
  H   5.54737766738192     -2.16368571094765     -0.28879482628350
