21
Coordinates from ORCA-job 16458optt
  Br  1.13525430606277      0.02264557833492     -0.02556042651284
  C   2.98755541120296     -0.13093905870784     -0.01972423492661
  C   3.58848940407126     -1.32954480696703     -0.01787434416467
  O   2.86977969175961     -2.47135372441514     -0.01879507624586
  C   3.61848596407581     -3.62232785196384     -0.01854124323790
  C   4.98586807896668     -3.59637346117874     -0.01704530840646
  N   5.45465863883654     -4.85145700581795     -0.01757975919799
  C   4.37797058850600     -5.71025265854028     -0.01941486515074
  C   4.60744404412378     -7.13871043453897     -0.02051371319945
  O   5.71745438440401     -7.61950071393714     -0.02036236818235
  C   3.21192313267793     -4.96283991275196     -0.01996264615959
  O   5.76804288204450     -2.49862407978386     -0.01515258158025
  C   5.05740790082007     -1.32788481179911     -0.01523574128072
  N   5.77906456468883     -0.28710374428849     -0.01345604804248
  O   5.15815902734956      0.92909686568573     -0.01356453025891
  C   3.78590579686992      1.09259409578852     -0.01690453030597
  N   3.28779349344142      2.24430243422688     -0.01704400113781
  H   6.41640776666148     -5.15864903605276     -0.01690364360252
  H   3.70150978126311     -7.76687469600965     -0.02144672491254
  H   2.20586438553776     -5.34714856974859     -0.02127149170068
  H   4.01096075663598      2.96094559246533     -0.01464672179366
