25
Coordinates from ORCA-job 16455optt
  Br  1.51729189613972      1.35260233413914      1.06657335863878
  C   3.08806403623290      0.59019094309969      0.41534244755732
  C   3.21271362345537     -0.71982813836728      0.13947095133793
  O   2.15292331930418     -1.56186991824862      0.29077437758095
  C   2.39557322541820     -2.94910203198659      0.09291093321602
  C   2.84059557382494     -3.63082101986641      1.37659315315604
  N   4.16173722143591     -3.13509662100527      1.72199484753455
  C   5.11256495265806     -3.38642918444444      0.65384761561494
  C   4.60739201037654     -2.65634817575194     -0.58814710566088
  O   3.31349620046311     -3.15023361979475     -0.94233433969892
  C   4.48542272731597     -1.17753301728438     -0.33669411449662
  C   5.50145285178324     -0.31156437190996     -0.51032928705379
  C   5.35121730740130      1.09794767205288     -0.21374142872761
  O   6.17329366221563      1.95679529978927     -0.32697431937252
  O   4.09085254296752      1.46011513380312      0.25749107516374
  C   1.06001808273457     -3.48378776894088     -0.42799373402228
  O   0.35668788874596     -4.20554979035012      0.21017890261185
  H   2.81394454776770     -4.71376297259940      1.19197806751268
  H   2.12672788986757     -3.39650162822749      2.16380531178361
  H   4.47694112706593     -3.50506681646348      2.60735186542030
  H   5.21179196306385     -4.45218602972539      0.40148872959669
  H   6.09156129545080     -2.99556804007876      0.93148026093672
  H   5.25251288436256     -2.85165951323062     -1.44292792700440
  H   6.47137357169473     -0.62347336213926     -0.87241041763443
  H   0.80584959825366     -3.13126936246902     -1.44272922399065
