27
Coordinates from ORCA-job 16465optt
  Br  1.16458823484196      0.10454655597840      0.02192073581558
  C   3.02614291407781     -0.04866772363019     -0.08399451194356
  C   3.65055937457200     -1.25006762140913     -0.03948664596704
  O   2.92295604288967     -2.38445832415512      0.18164660513316
  C   3.11812388300736     -3.39423049855677     -0.78549961848476
  C   2.05456829979552     -4.48494940430932     -0.72769746998670
  N   2.77073642006305     -5.56747197516387     -1.38639348892314
  C   4.14230422633801     -5.45648290798475     -1.30285726285067
  N   5.06013298119242     -6.21912289722505     -1.72698831860489
  C   4.40225253786144     -4.16830680302520     -0.55578350630099
  C   5.64439072743318     -3.40584066338525     -0.92592965462486
  O   5.85527535451150     -2.30408050860330     -0.03502371834046
  C   5.10518711596852     -1.18811616205491     -0.11596754145721
  N   5.76286413732229     -0.08681594462154     -0.18990347807821
  C   5.12369339849150      1.13868851788215     -0.19446658079611
  N   5.67571778089753      2.28017317141757     -0.23493399390141
  N   3.72031461428176      1.10263372313527     -0.16945149041623
  H   3.12192747955877     -2.94533456646027     -1.78644464613669
  H   1.14620784373250     -4.21845919452225     -1.26540124541740
  H   1.80525677226115     -4.70691360721541      0.31523047934107
  H   2.32678447737196     -6.43289537090542     -1.64285939925267
  H   4.69387489700091     -7.05106892540323     -2.18679356636242
  H   4.44809246253993     -4.41387567197106      0.51223278194887
  H   5.59443354437891     -3.04111394205980     -1.95592279170341
  H   6.52689092310066     -4.03183490561032     -0.82524796370061
  H   6.68402769072589      2.16443951755471     -0.25663371762204
  H   3.24669586578373      1.99362613230408     -0.19034999136719
