25
Coordinates from ORCA-job 16475optt
  Br  1.50177733068256     -0.42431749999199      1.46391578047713
  C   3.17554056181454     -0.17624348766579      0.62786931574173
  C   3.65315734036802      1.10986515071905      0.41760570626024
  O   3.03155069334219      2.26501729105405      0.73110181479841
  C   3.78698594699565      3.32705515250753      0.11905644662797
  C   5.18543675414191      2.75657900887945     -0.17654536421467
  N   6.07752491960846      3.10591289768003      0.92545914114759
  C   6.23493948725432      4.44128862277407      1.25335898643520
  N   7.21934567792408      5.02759147482975      1.77282391505421
  O   5.12292412133405      5.17608427151031      0.96953424499440
  C   3.88121080030683      4.49882753076321      1.08334853707339
  C   2.81698069362811      5.55661193109259      0.85067586183236
  O   1.82831443000054      5.35074319103618      0.21201680341933
  C   4.89633203633385      1.27893890983006     -0.16407875922999
  C   5.63024544372100      0.17495991888848     -0.54905868763385
  C   5.05829134298047     -1.07106408921055     -0.31304240414384
  N   3.87031368173311     -1.23086258261084      0.26613601622234
  H   3.27157158972129      3.61008063232465     -0.79994670024355
  H   5.56350928993246      3.11526394949813     -1.13730174548007
  H   6.90466897258938      2.53817305761330      1.02651256930049
  H   8.02353469356343      4.41393243452442      1.86040881180157
  H   3.75519686341140      4.11434589696612      2.10350765876189
  H   3.02809582197413      6.53202696066484      1.32184342982656
  H   6.60198258494479      0.26063388575332     -1.01749512004644
  H   5.57356892169332     -1.97944450943043     -0.59870625878242
