22
Coordinates from ORCA-job 16474optt
  Br  1.33873555920418     -0.89228825072193      0.86180999936379
  C   3.01198946952064     -0.25218609715394      0.31519608677611
  C   3.34187508937257      1.05839669092163      0.31366445991681
  O   2.59965340929119      2.11740303992330      0.69231042946725
  C   3.38359542526650      3.23943439394838      0.50134123415812
  C   2.92655029420235      4.46126133923303      0.84502240689774
  N   3.58873308891167      5.62705587687731      0.65702566790481
  C   4.70535733600559      5.88458455999961     -0.16908432505686
  N   4.70584537684514      7.00156609546930     -0.75658877770289
  N   5.79941685874724      5.01089734805886     -0.22952876881832
  C   5.79245594247287      3.74112410903738     -0.20355735913974
  C   4.65401357166949      2.84657292993227     -0.00396319962642
  C   4.63358784920942      1.48362366541291     -0.11738021387679
  C   5.63793675620391      0.49804027951025     -0.56536410368980
  O   6.73410244565681      0.84369598763350     -0.94910336944221
  N   5.24175271415919     -0.83898150391201     -0.52058863353192
  C   4.04863414284676     -1.14737099962880     -0.12314703687835
  H   1.95168095824042      4.54596383269219      1.30720326104184
  H   3.06289452957675      6.47456192100253      0.81832660321239
  H   5.59511432486266      7.14312868562306     -1.23022258559596
  H   6.74813958425448      3.23649827776388     -0.32439207356240
  H   3.79993527348014     -2.20698218162275     -0.11197970181719
