26
Coordinates from ORCA-job 16470optt
  Br  1.15491271543906      0.52677644293855      0.43557557111324
  C   3.01203164843484      0.33648514207469      0.22259407590825
  C   3.51992445914224     -0.81229990418227     -0.31179181788898
  O   2.61447793366275     -1.69993039617373     -0.77818392954510
  C   2.68174103287061     -3.10316103175599     -0.57758866405263
  C   3.08800913095185     -3.52748113292466      0.83706002007044
  N   4.44218435827528     -3.22805343086638      1.29798512529495
  C   5.46575627759305     -3.38562435717066      0.30557565633126
  N   6.37305924706756     -4.25232788230011      0.37349106675377
  C   5.41638039324678     -2.44506117625615     -0.89441129946570
  C   4.59588455791086     -3.08754903198255     -2.01709600921302
  O   3.42529930338957     -3.74268778312173     -1.56908524177761
  C   4.93557268940966     -1.07192764291883     -0.47873531790592
  C   5.84880065797715     -0.12604018451005     -0.19044164611520
  S   5.54854831187129      1.44172593267642      0.42008612887230
  C   3.78031588287584      1.49178308145817      0.66475453290308
  O   3.32499133346187      2.48361980665127      1.16843497015108
  H   1.65202152255242     -3.42828744258653     -0.72740508810306
  H   2.94378380953493     -4.60959414507457      0.85950117004400
  H   2.38407926150154     -3.08197152439333      1.54118241524626
  H   4.48047702258838     -2.28919748166780      1.67944560977183
  H   6.25485625209950     -4.80702320539987      1.22240908807092
  H   6.43691137138550     -2.35079358887728     -1.26482363065114
  H   5.19485756185855     -3.86448168033698     -2.48821131744290
  H   4.33951055571380     -2.33087352362938     -2.76383883669456
  H   6.90361270918503     -0.33602385967023     -0.32548263167557
