22
Coordinates from ORCA-job 16472optt
  Br  1.13412819656389     -0.21207844016347     -0.18544151044690
  C   3.00050271418746     -0.15675547216501     -0.08749479368076
  C   3.75877895651569     -1.25311506269115     -0.03849784180480
  O   3.15386720353302     -2.49447406638877     -0.03690095222049
  C   3.93662499981475     -3.58716449787624     -0.06378861489871
  C   3.61728916066384     -4.88036439072460     -0.10087672847552
  N   4.83037412642072     -5.60004747537666     -0.03940990703297
  C   5.91608039817485     -4.75136384180232     -0.03611838105673
  N   7.17046189702312     -4.91858667139120     -0.05074386841579
  N   5.32841690650358     -3.47027164039232     -0.00830397345756
  C   5.95715893020550     -2.27109644104847      0.03501006268858
  C   5.20242925239898     -1.14767193119369      0.02445179027169
  C   5.84639459475038      0.17183166512995      0.05912086454197
  O   7.03511004574139      0.34033780731213      0.11563431123375
  C   4.91415298940165      1.39899030190019      0.01278700256356
  O   5.33484890318660      2.52302405601251      0.03900913272543
  N   3.56979837547024      1.11517297584194     -0.06406711165515
  H   2.65542306055042     -5.35649853927772     -0.12222355839837
  H   4.91711057679257     -6.57412074819982     -0.26460409768750
  H   7.43647298328397     -5.89646346724879     -0.06142551635540
  H   7.03852715493072     -2.27823036574038      0.07296241242416
  H   2.95504857388657      1.91594624548390     -0.09807872086250
