20
Coordinates from ORCA-job 16488optt
  Br  1.14561322578734      0.19978022240341      0.08068621520398
  C   3.01207088168310      0.16865094024100      0.08075442414175
  C   3.72538273130854      1.31065251830825      0.08049460898638
  O   3.08100427383245      2.51022224461329      0.08020119924154
  C   3.84532497389560      3.62358402678363      0.07984229344463
  C   3.47661823218471      4.94146690251560      0.07938336557243
  N   4.65717132593745      5.61779848586437      0.07916988373317
  N   5.73505295577706      4.85272854946640      0.07946051996719
  C   5.24861197953622      3.61794767822641      0.07983044827940
  C   5.94241265695482      2.36264122056993      0.08018269744793
  C   7.37306277428203      2.32211112805806      0.08025091801679
  N   8.51928049457762      2.29543345982090      0.08111733244135
  C   5.17685848364363      1.23857177197826      0.08050127554500
  C   5.75974847342235     -0.09985159770280      0.08087417784996
  N   5.10435674919459     -1.18823837918303      0.08112588401688
  C   3.67897394800849     -1.15323360465981      0.08102220163663
  O   3.06309946866864     -2.18293248187837      0.08113303825733
  H   2.52023212488932      5.43274478244941      0.07919258242302
  H   4.77486226839864      6.61807249062430      0.07882229669153
  H   6.84726197801734     -0.15715035849924      0.08095463710309
