21
Coordinates from ORCA-job 16484optt
  Br  1.01977688440366      0.11023210869793     -0.08591664620891
  C   2.88156826391316      0.09690811392308     -0.08488849347425
  C   3.61922069661352      1.22623815488587     -0.08437676521309
  O   3.15923010876271      2.49112221594446     -0.08432431413088
  C   4.27483208738763      3.29979150238798     -0.08391539260154
  C   5.42656807813810      2.60488799393749     -0.08369363661874
  N   6.65046832881645      3.22531122589682     -0.08331365323108
  C   6.75017692978934      4.60395250539757     -0.08343622565621
  O   7.80948095119741      5.17927068083853     -0.08303758289681
  N   5.53489016712926      5.26877448539943     -0.08334104042361
  C   4.22716618589611      4.74542211644028     -0.08362712443843
  N   3.14939706455301      5.40692849945051     -0.08359402529375
  C   5.05905339859339      1.20842498037602     -0.08388495105340
  C   5.67708717281135      0.01417503270047     -0.08377490323851
  O   4.97318055450381     -1.11391737090727     -0.08405674387574
  C   3.56741401514525     -1.18487301586435     -0.08463471927162
  O   3.08041668692830     -2.27043049994418     -0.08479449569214
  H   7.52150842536581      2.72068927898665     -0.08343777883413
  H   5.63680510265062      6.27387008750634     -0.08318037317737
  H   3.30273317589841      6.41329335857223     -0.08332925216947
  H   6.74502572150266     -0.15407145462586     -0.08344188250032
