23
Coordinates from ORCA-job 16481optt
  Br  2.64180204259706     -2.07002643894552     -0.84879210620051
  C   3.06593668821086     -0.30912543694057     -0.36929110014619
  C   2.76701124703181      0.75840895257911     -1.14253041298709
  O   1.80480530485263      0.72174036535700     -2.14606945543033
  C   0.72132435589850      1.33267674117758     -1.47357647348993
  C   0.04601654632917      0.72717981336544     -0.44360879016935
  N   -0.21935008117409      1.70968570570934      0.47918284867173
  C   0.27798707620562      2.90151545482073      0.02874943493988
  O   0.51898929797434      3.90844266757534      0.90807392447613
  C   1.91478948189499      4.20416803904451      0.98050896570747
  O   2.68925998453640      3.17179063761606      1.55940609685966
  C   3.07451124906291      2.07255032863275      0.86070745266309
  N   3.33858751963917      1.02796374436959      1.56100823036309
  N   3.55394404600967     -0.11731083260608      0.88462860428641
  C   3.22481083159320      2.06448226266125     -0.62206933042750
  O   3.58779116967004      3.01952898962389     -1.27040326965872
  C   0.75316285644407      2.73418358911545     -1.23811322665722
  H   -0.12949324006043     -0.31385006129520     -0.23440727951347
  H   -0.70170606825776      1.59409798417286      1.35456963401866
  H   1.99428477332370      5.03553941501239      1.67191561339475
  H   2.29581090564522      4.45507249400451     -0.00658695812408
  H   3.81365633904059     -0.90297421679192      1.45697856304894
  H   1.29506767353231      3.45325980174147     -1.82428096562540
