17
Coordinates from ORCA-job 16496optt
  Br  1.31750346316862      0.32205965806851     -0.00804906565486
  C   3.17222482914645      0.14146246047357     -0.00693191195759
  C   3.97707435112945      1.22722701416911     -0.00641616989375
  O   3.56610014688892      2.52601167584786     -0.00652829017058
  C   4.69851510252151      3.27797433174710     -0.00602100626309
  C   5.81406326390234      2.50156272740383     -0.00554823260864
  N   6.98779688134063      3.14722324916291     -0.00503407302156
  N   6.81105233136104      4.41465785774702     -0.00505924843099
  S   5.18289902479683      4.88463474837802     -0.00581622752282
  N   5.35809756692467      1.17987926718939     -0.00577228327982
  C   5.96747244658066     -0.04117332650146     -0.00567945225359
  N   7.22205227455631     -0.37491647726118     -0.00527235197631
  N   7.19931521950982     -1.73408479125514     -0.00539462525892
  N   6.01900414179932     -2.20425738997180     -0.00590649364335
  N   5.18393861987657     -1.14128933123734     -0.00604658818621
  C   3.74775617433370     -1.19967670237393     -0.00661116079547
  O   3.16913416216312     -2.24129497158646     -0.00691281908244
