20
Coordinates from ORCA-job 16503optt
  Br  1.43459004940028      1.21735218991407      0.39940357780908
  C   3.20144978606796      0.71774611758375      0.11967322085447
  C   4.20891537540006      1.58293996964440      0.08862038058655
  O   4.14345587129607      2.94330038011015      0.23995881176445
  C   5.43756102326721      3.35633893850313      0.12700079683896
  C   6.32317814982942      2.33071029429446     -0.06780338535096
  O   7.61195677014270      2.78268700103328     -0.20573600214540
  C   7.45609189340554      4.09674010181106     -0.10238187959683
  C   6.19419578018835      4.54111568880708      0.08239088916834
  O   6.22495465652944      5.88953370540598      0.34141655190000
  C   7.54588457605196      6.24321685739095     -0.08041676145662
  O   8.38189765403851      5.05635951186249     -0.00528332063931
  C   5.58327669564850      1.11085989545048     -0.12948544049680
  N   5.91653738670236     -0.11094158329604     -0.30384096937519
  O   4.86623550498262     -1.01359594612326     -0.27643389424302
  C   3.53523379403835     -0.69693090032191     -0.09442747469847
  N   2.65884872216472     -1.59839804213860     -0.11500876714258
  H   7.51768525984708      6.55770963876681     -1.12696998942418
  H   7.95068684946127      6.99788182289225      0.58407828336105
  H   3.07536420153754     -2.51262564159057     -0.28075462771354
