23
Coordinates from ORCA-job 16507optt
  Br  0.94961679751048     -0.03215155269716      0.19154906985806
  C   2.81464180710629      0.03501205807520      0.07741331852534
  C   3.49063606793359      1.20760981204950      0.03556977369903
  O   2.76075640952945      2.37257852925214      0.04873404329166
  C   3.49405590038340      3.50412845475853     -0.04121595664635
  C   4.83903601250940      3.56479997759620     -0.08429980919976
  O   5.24142154963667      4.85351673805174     -0.15870240119183
  C   4.11818784143605      5.60879082409808     -0.16638754950851
  C   3.00457632467748      4.84320493835467     -0.09414621606503
  C   5.77283449416966      2.41876194841622     -0.00413572469879
  C   6.77631369082556      2.42183223636645     -1.08022908364016
  N   7.57817693267739      2.41948782132572     -1.89740867513532
  C   4.92908105839250      1.13963425841767     -0.03126418761054
  C   5.55220324834255     -0.05719663049425     -0.09241575972543
  C   4.83655632097331     -1.31924046765936     -0.07691427309014
  N   5.28952761162713     -2.50975554327718     -0.14385545761574
  N   3.45588137965150     -1.15886650298037      0.03934357407572
  H   4.26730902469573      6.67196326613924     -0.23193838104922
  H   1.98093366430535      5.17360597434584     -0.08352750213310
  H   6.33407288545373      2.43970369344982      0.93778656590252
  H   6.63166322256442     -0.10335610287198     -0.16581169809546
  H   6.30071606966471     -2.51209951937200     -0.22409495002667
  H   2.91780168593359     -2.01396421134475      0.06495128007971
