26
Coordinates from ORCA-job 16504optt
  Br  0.87614258537085     -0.26778506276010      0.70852890564605
  C   2.71985236144297     -0.24063991565794      0.32562032148711
  C   3.33388008697258     -1.38225108494349     -0.17910979319127
  O   2.56522710348573     -2.48381644511619     -0.37804513299902
  C   3.25707376780888     -3.68187077965567     -0.73964798673037
  C   4.18900180992676     -4.12689238612757      0.40841749197601
  O   5.46957457949863     -3.59922863486248      0.07791262653634
  C   5.28309553822273     -2.68177473154462     -0.99877915146950
  C   4.23147209938355     -3.37533646943562     -1.85658193369055
  C   4.70373438904975     -1.38447771208722     -0.47226153691546
  C   5.42597098742449     -0.22405306296757     -0.22945926965858
  Br  7.29236511739939     -0.16565920630336     -0.56053673921120
  C   4.82295701070852      0.91899199376954      0.27151052813944
  C   3.46520032454189      0.90428274364979      0.54543354858626
  O   2.28581916420133     -4.60057489143980     -1.11235236069899
  C   1.36943959227118     -4.94402471920832     -0.15615239589663
  N   0.41766273516514     -5.72599902354603     -0.36040929052298
  H   4.24931653529751     -5.21497421238936      0.45575596592217
  H   3.84552829391319     -3.73284392092658      1.36803125622983
  H   6.24240376088715     -2.52967095339925     -1.48253282290753
  H   4.62411125188653     -4.29919937363784     -2.27746034011527
  H   3.78270145772895     -2.75501858538832     -2.62944386238738
  H   5.40840251577192      1.80860891716781      0.45150347150384
  H   2.98033076789383      1.78653149147716      0.93992664426263
  H   1.52499151627092     -4.47539672015245      0.81365928884742
  H   0.41074464747561     -6.05792725451448     -1.32552743274236
