22
Coordinates from ORCA-job 16506optt
  Br  1.18434160315937     -0.46351279404046     -0.30398791465233
  C   3.04792537944819     -0.37889323149585     -0.10906012854208
  C   3.82430540440541     -1.48294296980918     -0.17074436568123
  O   3.24548562826929     -2.70230389149113     -0.36512228253156
  C   4.03316973799582     -3.78606294832783     -0.28396287897310
  C   5.37262228400794     -3.70631808674374     -0.02878095219945
  O   5.90210591652114     -4.94717363471358      0.00701389110339
  C   4.87912569204555     -5.81052065725694     -0.23335306277724
  C   3.69664754172655     -5.14717213025274     -0.42329777180163
  C   5.17649620461695     -7.19055583339263     -0.24938217190264
  C   5.41207587095396     -8.36536941084114     -0.26755903316582
  C   6.03119399871487     -2.46948139056814      0.12211430645620
  C   5.25746478747342     -1.35560620145743      0.00527503776125
  C   5.81580095620450      0.02974250795219      0.04038803250855
  N   7.03104714961261      0.32317781726245     -0.19553840292703
  N   4.93673318451786      1.07985930183619      0.33134431194379
  C   3.67668370307621      0.87605200750270      0.22632885808266
  H   2.73796050610089     -5.59112434865394     -0.62533090227742
  H   5.62395451043130     -9.40837950026100     -0.28365233460244
  H   7.09422358947426     -2.41346112271900      0.31758024482358
  H   7.56787910153398     -0.49822574837389     -0.46550301292857
  H   3.01375724970987      1.71527226584510      0.42523053228313
