24
Coordinates from ORCA-job 16514optt
  Br  1.21400216323107      1.22733953149343     -2.07045078606510
  C   3.00843256636612      0.79612715558393     -1.68797502493153
  C   3.31012847509999     -0.26360004817981     -0.85618796621061
  O   2.34202742452043     -1.07582749481678     -0.30279434531636
  C   2.54765054998822     -1.57895343128087      1.05298611469501
  C   2.85741305900678     -3.15598382560661      1.14651539142645
  O   4.20297165789875     -3.45028380940321      1.60770671072117
  C   5.37874677560740     -2.87058140098735      0.94849449085805
  C   4.73001577319722     -1.69392593829798      0.25694996728164
  C   3.90238137639505     -1.10417946561124      1.42194516301337
  O   4.32060987934892     -0.48835470828739      2.34845987208885
  C   4.69894999544140     -0.51569999389148     -0.66421511801868
  N   5.64416826432234      0.21574205709733     -1.20657582026165
  C   5.21652025640742      1.21340369699897     -1.98533316042539
  N   3.95864096736031      1.52442348936382     -2.24802957656130
  C   1.96762859284429     -3.77271248884410      2.12125749159725
  C   1.21068126756177     -4.24763653937729      2.91570848956460
  H   1.69174120905879     -1.28178990859257      1.65048437047229
  H   2.66894257480593     -3.59097018343782      0.15930588601296
  H   5.81393871338180     -3.59500267281736      0.26111578932477
  H   6.07199747395728     -2.62750149315838      1.74906392796366
  H   4.04178868003038     -2.28576000610975     -0.34113395299367
  H   5.97624689025036      1.82929267405810     -2.45030325742772
  H   0.54337541391794     -4.67856519589557      3.62400534319194
