27
Coordinates from ORCA-job 16515optt
  Br  1.41980948356935      0.83323498348564      0.34839260653557
  C   3.22149280505966      0.32398803195866      0.22199869818414
  C   3.55037589082723     -0.95123167432250     -0.10683571323766
  O   2.63371878964323     -1.89663213344496     -0.33812141389995
  C   3.27255436866927     -3.17810461004967     -0.53374219148950
  C   2.50681981871701     -3.86919848974645     -1.64972450283275
  O   3.06758904065197     -5.11657952756820     -1.97227824652070
  C   3.97551827377276     -5.08868425403196     -3.05658439506945
  C   5.32311751168084     -4.47023809095654     -2.72092278529963
  C   5.25817503954465     -3.02668431649995     -2.22351763971805
  C   4.77146808598196     -2.89249993784149     -0.77510110598816
  C   4.87881043564022     -1.46858769347829     -0.27928118625437
  C   5.97590398755566     -0.72824909393587     -0.07635525219015
  S   5.94535553513983      0.92034037707964      0.39989195263712
  C   4.19856040154216      1.36148344936842      0.49130611689618
  O   3.95683397385587      2.50124931911085      0.78855478860615
  H   3.14981852028434     -3.74126670309620      0.39355043824217
  H   1.48246521916477     -4.03709003116801     -1.31420339127859
  H   2.46667766175077     -3.21181583808698     -2.52543541165928
  H   4.10840683986301     -6.12730726254821     -3.35901767262189
  H   3.51713414548104     -4.55030777452785     -3.89622802512036
  H   5.93484058147379     -4.51151729659215     -3.62598583673044
  H   5.82364847040853     -5.08861465718517     -1.97021319857308
  H   4.63546735430121     -2.41579517195073     -2.88463343677570
  H   6.25937183322676     -2.59196771239740     -2.26585636011984
  H   5.36877589848503     -3.56289524842490     -0.15434803368956
  H   6.97129003370898     -1.13502864314970     -0.21330880203218
