25
Coordinates from ORCA-job 16512optt
  Br  1.98100516028427      0.73010612988978     -1.90247988300581
  C   3.19098144423770     -0.06798626695960     -0.73384076389517
  C   3.43050993609408     -1.40252079288977     -0.73052911545802
  O   2.77831316374033     -2.22476427023636     -1.57308385342076
  C   3.10580845630943     -3.62018662322140     -1.54045897438198
  C   4.50089360402009     -3.88240616150081     -2.09622100908717
  O   5.38675479729717     -3.75776052329640     -0.98022043046971
  C   4.62435283611017     -3.42596486182437      0.16876378378733
  C   3.26557137308528     -4.07673251097020     -0.09327985298544
  O   3.32155656549482     -5.48673109776889     -0.09720254587293
  C   3.37847647149863     -6.07822045734158      1.12754308672665
  N   3.54800545759178     -7.30088638179836      1.31710420806868
  C   4.37427904787712     -1.94241793230169      0.21953829007478
  N   4.98731822101193     -1.20819406502234      1.08042757412517
  N   4.73744786358806      0.09267943547676      1.05957860804177
  C   3.88298093444956      0.79481704124658      0.21405564458713
  O   3.76700386017006      1.99404618883047      0.31624623914685
  H   2.30925347421750     -4.12667975715706     -2.07653621837873
  H   4.75827741739545     -3.15464467159896     -2.86646259106758
  H   4.57827740074636     -4.89283088397406     -2.49862099614416
  H   5.15088294515697     -3.76499853183009      1.05914544098130
  H   2.46866155274504     -3.70869942590647      0.55733187197806
  H   3.24597802619014     -5.38995533744660      1.96340096417488
  H   3.66178722330485     -7.80436434310211      0.43682818150530
  H   5.23662276738316      0.64629610070358      1.74197234096957
