20
Coordinates from ORCA-job 16526optt
  Br  1.05008948908961      0.07513444799713      0.07565558171378
  C   2.91323379844168      0.00159958281501      0.07384942213060
  C   3.56775441688717     -1.17274776534453      0.07283987781826
  O   2.92323295503004     -2.36586350586761      0.07269957432068
  C   3.68665935204580     -3.48703063761859      0.07211576563099
  C   5.03397416818214     -3.43213480911661      0.07165905761933
  O   5.76376533457321     -4.55327431098008      0.07127353090071
  C   5.13888598198781     -5.81096188773848      0.07146478609447
  N   5.83420731516862     -6.85271269537813      0.07144479323149
  N   3.74569188723508     -5.86182463151072      0.07149331299037
  C   3.06327927772903     -4.78114157570171      0.07184391726973
  N   5.73524186276427     -2.26018300875772      0.07148243188385
  C   5.02102158644189     -1.18677374570357      0.07198216727884
  C   5.69353460768233      0.11729700558305      0.07191458981061
  N   5.09625384360413      1.23562492360379      0.07256600912582
  C   3.66395591673261      1.27974764832623      0.07341460451463
  O   3.11551839766066      2.34456503639159      0.07369756354644
  H   6.82775096389585     -6.63357569520937      0.07140356519228
  H   1.97798789153786     -4.84458102900391      0.07188969577148
  H   6.78096095331017      0.08483665321427      0.07130975315564
