23
Coordinates from ORCA-job 16520optt
  Br  2.47571242888368     -2.03101932081582      1.17626229968577
  C   3.56205624865154     -1.00827013734042      0.06755575081001
  C   3.76363267595695      0.31255547460422      0.24310505342643
  O   3.24567282205146      1.09952421201636      1.19781559301126
  C   3.51521818927444      2.47826409776573      0.86235789136111
  C   4.69692005825096      2.44898101755184     -0.12541376656870
  O   5.86726696527770      2.60617455531250      0.68069860909324
  C   5.56275747431087      2.94827216637000      1.96639268000792
  N   6.37803467289029      3.03627978950465      2.90679228196963
  C   4.06686661443615      3.21848992850236      2.07238839592470
  C   3.80113445712039      4.64995403930027      1.95345692019842
  C   3.57911648560086      5.81573710423925      1.80362912525774
  C   4.61217317455018      1.04730728434837     -0.64217520970027
  N   5.20956696895944      0.53225079624674     -1.65415093577539
  N   4.99585388038214     -0.76593306260236     -1.83452698607469
  C   4.22339107128571     -1.64737649953032     -1.06656903904070
  O   4.14565969937945     -2.81180549976332     -1.38001811460084
  H   2.60693916476397      2.91693839369306      0.45486994995835
  H   4.66986066555737      3.22377346652516     -0.88816691580143
  H   7.32672646153421      2.82116181111709      2.60348128837470
  H   3.67575691455910      2.82214812372192      3.00840708853557
  H   3.38839815348064      6.85663769083601      1.69077067770674
  H   5.45828475284239     -1.17804543160333     -2.63296263775959
