26
Coordinates from ORCA-job 16521optt
  Br  1.28539459772228      0.20727039810996     -0.29259205925812
  C   3.16196340909070      0.26271289093924     -0.07732872173279
  C   3.80506077089624      1.48804047613882      0.01117108943997
  O   3.23953876034210      2.71327557483729     -0.04183134233835
  C   4.22755806879253      3.66505824792319      0.42529656733035
  C   3.94551219293069      3.93084574181817      1.89542136289454
  O   2.65613668446306      4.50444016937499      2.05316638072024
  C   2.30401427123704      5.42436629934721      1.13023955746855
  N   2.88468047225379      5.71895006325702      0.05503062559276
  C   4.05824438399213      4.96154395759487     -0.33794631232195
  C   5.59468128390537      2.96700934998189      0.18285489621334
  C   6.64353191822815      3.29871593737338      1.13735604884586
  C   7.51816496141776      3.55479237355811      1.91337823498860
  C   5.17819382785950      1.51302504880428      0.17003139816850
  C   5.88553427161295      0.33246505587699      0.24590212706109
  C   5.14860070771972     -0.84384769834879      0.14680726358280
  N   3.82716786648967     -0.86912464327046     -0.01452343007170
  H   4.69847240434042      4.61395311023022      2.29508410808117
  H   3.95420200000896      3.00839011791058      2.47569475785533
  H   1.38894956200861      5.92746884224375      1.42519092195074
  H   4.95148056939267      5.57640186292066     -0.18851598558916
  H   3.98761294188607      4.74321836964819     -1.40530611611197
  H   5.94246064785565      3.24027881212742     -0.82104147979929
  H   8.29411584155144      3.78404963305965      2.60494679712699
  H   6.95829186806372      0.31507781541327      0.38398690363072
  H   5.63743571593868     -1.80837780686997      0.20452640627178
