25
Coordinates from ORCA-job 16531optt
  Br  1.32723311472807     -0.55415274256842     -0.35502855972821
  C   3.08839135240027     -0.19724986408564      0.15480021395848
  C   3.75856645354371      0.87353862826607     -0.33511393600096
  O   3.17047577205853      1.62706355923713     -1.29769135383310
  C   2.84449437666307      3.03428360836403     -1.06098209449338
  C   3.13097627537322      3.86117806465584     -2.34859853853687
  O   4.24292540468047      4.78631877099589     -2.26847199256761
  C   5.40510854958954      4.47950156471854     -1.59730184734349
  O   6.36319923832417      5.17421230237910     -1.67342619363044
  C   5.13087611716617      3.22196367788055     -0.84245738102242
  C   3.83139943671525      3.52780238644257     -0.05503693310168
  C   5.98328628364045      2.25241435758720     -0.08607015859102
  N   5.08020867152285      1.06215853786015      0.09639098508230
  N   5.67290225365934      0.17874830309041      0.92510434500269
  N   5.09526455863824     -0.82956365345419      1.37075035664587
  C   3.72259098655083     -1.11137296509843      1.08593451988170
  O   3.18705050862578     -2.04816197272366      1.61324272010883
  H   1.79248394679736      3.06914489752431     -0.78370902694850
  H   2.27954206343684      4.49780648167716     -2.57486511849488
  H   3.29294906483865      3.18157606108219     -3.18681751707490
  H   4.86591019953742      2.60114994008672     -1.69707664528360
  H   3.71322796488311      4.59066038927713      0.14599410134521
  H   3.77549585113686      2.99568923064839      0.89268971209737
  H   6.28040014556891      2.58200466246328      0.90746495093815
  H   6.86304140992086      1.92628577369365     -0.63672460840951
