20
Coordinates from ORCA-job 16534optt
  Br  0.94403918724590      0.23002595567916      0.08123446293304
  C   2.80948384184646      0.14656674726779      0.08001475747075
  C   3.55555173866365      1.27196996726899      0.07976881608413
  O   2.90965670627287      2.47809663795393      0.08013922272347
  C   3.66115911529172      3.58568881334784      0.08023871277189
  C   5.01483009512678      3.58760443825757      0.07998978190033
  O   5.46423904632850      4.84219541803295      0.08025381086475
  N   4.38346202810641      5.68933462628470      0.08054774046406
  C   3.30569401696019      4.95514637507659      0.08065394794158
  C   5.75436944099390      2.37097949940831      0.07946520998876
  C   7.18320128924465      2.36900155025133      0.07914784921673
  N   8.32985933970716      2.36554922593083      0.07804028393539
  C   5.01851225964564      1.21700216638599      0.07925113128805
  C   5.64279024574986     -0.08599394276831      0.07858866462462
  C   4.91217005979893     -1.20489303243890      0.07849657537281
  C   3.43432441917854     -1.18750666754938      0.07925056019188
  O   2.79446140503937     -2.21540721453046      0.07905044498915
  H   2.33329039557397      5.41982284302961      0.08092947789003
  H   6.72532143356710     -0.12079756688854      0.07808204014945
  H   5.36758393565838     -2.18638584000004      0.07785650919914
