20
Coordinates from ORCA-job 16533optt
  Br  1.01532884466971     -0.29867926441434     -0.00698451462655
  C   2.88540291730329     -0.16557589698945     -0.00853981595657
  C   3.63386399586713     -1.28715430663085     -0.00923994213229
  O   2.96890552296827     -2.47615910250018     -0.00919788632917
  C   3.67024502830094     -3.63616244541808     -0.00948494539686
  C   3.05649970867494     -4.81649669487640     -0.00955039646864
  O   3.74008235433264     -5.99227474663170     -0.00979050040321
  C   5.10231533872333     -6.03197723622363     -0.00971891423502
  O   5.67816741563585     -7.07215945930361     -0.01026841467722
  N   5.72593494489479     -4.80311525137201     -0.00990556514095
  C   5.11171623351458     -3.57230136179344     -0.00983507219337
  N   5.80171100574745     -2.49999151974016     -0.01011385943217
  C   5.10560654652706     -1.29212254269425     -0.00995940815623
  N   5.81015138099990     -0.22564637545990     -0.01030559518303
  S   5.20645542730307      1.29191010259380     -0.01007733629922
  C   3.44010398240788      1.18914255203443     -0.00907518888767
  N   2.70025022341755      2.21713165761822     -0.00889474542874
  H   1.98514465259311     -4.94746576115340     -0.00944338179109
  H   6.73757794338057     -4.82035239815470     -0.01016957606596
  H   3.23053653273791      3.08745005110965     -0.00944494119603
