25
Coordinates from ORCA-job 16547optt
  Br  1.07761964309374      0.29972615846347     -0.28805318432756
  C   2.95505639428222      0.18314490297259     -0.14090970026107
  C   3.74286070587574      1.22516693423144     -0.60544508173569
  O   3.15031134405362      2.31734757791668     -1.20092210726516
  C   3.20664130255883      3.46382604471120     -0.45150778230736
  C   2.10067038237934      4.17630444315782     -0.09807198997560
  S   2.59394587474651      5.51946709910075      0.80485817179141
  N   4.19149246558224      5.16708250580363      0.74336046743316
  C   4.39632455700338      4.07248870452121      0.04960355916813
  C   5.81088419335780      3.58775459262593     -0.16481937254844
  C   5.93136440210190      2.33292364040961     -1.03070220244344
  C   5.13086984142581      1.17696663118466     -0.50290266222287
  C   5.71064442671799      0.06169311888096      0.08801417202367
  C   4.92514458558764     -0.98344678889988      0.55551096928665
  C   3.54504156694252     -0.92950096658320      0.44054602958618
  C   6.62718310085358      4.73245367604138     -0.75428257189625
  O   7.33086504516658      4.60896281493509     -1.71480565352995
  H   1.07443033716169      3.93926304962064     -0.32744035646670
  H   6.23549638577158      3.39791777735821      0.82890222284284
  H   6.98359278319691      2.06036188569111     -1.09645837804918
  H   5.60550593100635      2.57726719585743     -2.04385027770612
  H   6.78928067445641      0.01006444730810      0.17214619347546
  H   5.38851311726206     -1.84858739197444      1.01029772020658
  H   2.92326442305228     -1.73727140742978      0.80066999814608
  H   6.51899651636322      5.69862335409535     -0.23273818322478
