22
Coordinates from ORCA-job 16546optt
  Br  1.15569311576500      0.05537541274494      0.03003871066097
  C   2.98945287762413     -0.28592567544150      0.06164943545672
  C   3.49551631474165     -1.52920939264776      0.06132542085395
  O   2.82664102157743     -2.69992502558581      0.04040091771764
  C   3.76369629088022     -3.72560030089399      0.04402881913156
  C   3.31983334271730     -4.98138533304478      0.02333598069739
  S   4.13558698677364     -6.50394938815515      0.02033792487764
  C   5.91952672886736     -6.33744688965745      0.04633641803390
  O   6.48243705597209     -7.39958914556714      0.04365766764472
  C   6.70622483208799     -5.08705835766438      0.06985631964915
  C   6.37093511383777     -3.79199198268025      0.08078873723483
  C   5.08684677543936     -3.14372132170429      0.07075041473101
  C   4.91102819451923     -1.79118884276744      0.08232203363904
  N   5.85908507424058     -0.79375713895719      0.10840397919284
  C   5.39558924015318      0.39799330857123      0.11174669601425
  C   3.95923094497958      0.80317630622880      0.08947080139072
  N   3.60043020726435      2.02744448145599      0.09365738904012
  H   2.24469203877148     -5.12075550145803      0.00494292154024
  H   7.76227201354765     -5.33243354253490      0.08053321826502
  H   7.19258914347710     -3.08335387922026      0.10019757210958
  H   6.10901878498660      1.22040418551406      0.13265498991175
  H   4.40967390177628      2.64789802346534      0.11456363220694
