21
Coordinates from ORCA-job 16543optt
  Br  1.09330574583001      0.13236890365122     -0.07268775057404
  C   2.95656573461542      0.01604986643396     -0.07278779834334
  C   3.69546159161290      1.13991577554620     -0.07265726411834
  O   3.27015947781787      2.42084757004718     -0.07242585433904
  C   4.38485478941640      3.22190397423878     -0.07237849893974
  C   5.49828442565551      2.45543697911147     -0.07256044725763
  S   7.12758017198202      2.98528983757271     -0.07258095604373
  C   6.83266976190796      4.69222552028709     -0.07223829256742
  C   5.64580514861643      5.31224523611319     -0.07207931968399
  C   4.31780127096705      4.66969751482804     -0.07217213195206
  O   3.28061478338536      5.29810392642903     -0.07205372124397
  N   5.08092839198631      1.13689674441148     -0.07274694602919
  C   5.77224843743899     -0.05359117920609     -0.07294609861387
  C   5.09261912255611     -1.20786769129762     -0.07306675145829
  C   3.62290031778737     -1.28593528660194     -0.07300956194117
  N   2.94549602804906     -2.36998553375323     -0.07311935806542
  H   7.75884211341725      5.25251524287408     -0.07215831386590
  H   5.62332575662250      6.39526237744827     -0.07187123274355
  H   6.85069231665474      0.01915117872751     -0.07298325207167
  H   5.64548385326164     -2.13761193371910     -0.07320949927168
  H   3.56036076041904     -3.18091902314225     -0.07326695087597
