23
Coordinates from ORCA-job 16541optt
  Br  1.11866582122715      0.18163677746608     -0.32513537353702
  C   2.97856264337748      0.00337041212373     -0.18344253380750
  C   3.70051735392864      1.01879665974539      0.33577589902526
  O   3.09947576010831      2.10900399475789      0.86985237460857
  C   3.23176572468556      3.28871516810893      0.17108675681707
  C   2.19646773170039      3.96909255513987     -0.37893021079804
  S   2.74870355749108      5.45705773009002     -1.01101642676735
  C   4.36025962610736      5.15278388879987     -0.53950841836761
  C   4.49062285555924      3.94299226332461      0.08412956857868
  C   5.69970536652731      3.34616592536127      0.62011971710870
  C   5.91422972339247      2.04072568422586      0.79758541928353
  N   5.08125082749784      0.95445419398466      0.46118242124460
  C   5.69449025402761     -0.23668031428861      0.12095183494028
  C   5.02873740089290     -1.28924021377483     -0.36767944043185
  C   3.58952795947755     -1.25853217299039     -0.60621233668607
  N   2.88472156647316     -2.20173868284755     -1.10194959519242
  H   1.16140740814770      3.67386955833671     -0.41479749127727
  H   5.13457620411200      5.87355507913860     -0.74778114636580
  H   6.51199463130186      4.00563755827094      0.89622800048191
  H   6.86721845119237      1.70870004842583      1.18661042526688
  H   6.76545985904197     -0.24897459834005      0.26486189321119
  H   5.57509646830642     -2.19113285873636     -0.60739816317752
  H   3.46954280542357     -3.00625865632245     -1.31953317415822
