23
Coordinates from ORCA-job 16559optt
  Br  2.94943893959562      2.06335868603361     -0.34915970278726
  C   1.48183707013559      1.15648764668975      0.40228887682607
  C   1.60986128760509     -0.13271996671867      0.79602812600632
  O   0.58483932814766     -0.77701588657498      1.52613898021536
  C   -0.24224655717901     -0.03105777879794      2.25310968961013
  N   -0.09975843494154      1.22368726686267      2.39552992684856
  C   -1.40561345734956      1.70143556801215      2.61868984994095
  C   -2.21036626604375      0.64909448614261      3.34440102993814
  C   -1.52095202204244     -0.62344753987248      2.79696179613621
  N   -1.80893077343305      2.71307154494527      1.97958192079884
  C   -0.86058774014156      3.22231156927248      1.04860131497395
  O   -0.36906963660731      4.30607411115295      1.08320092541122
  N   -0.73773112619134      2.34832404401590     -0.06677859866266
  C   0.18506277563145      1.51894604339364     -0.26604572458530
  C   0.14211338246585      0.57860145331486     -1.44500380100099
  C   0.90814127035234     -0.51023506261333     -1.60694204937880
  S   2.15924331895835     -1.16039540001039     -0.51058947406460
  H   -3.26892350401017      0.71434327616073      3.11219479365765
  H   -2.06978701659838      0.73979079576080      4.42121262513693
  H   -2.08436382294698     -1.08072084862218      1.98234530087085
  H   -1.31919628818060     -1.39084581331570      3.54241837143882
  H   -0.60731435345845      0.81530502063601     -2.19032192481585
  H   0.77330362623220     -1.13239321586777     -2.48486225251457
