22
Coordinates from ORCA-job 16554optt
  Br  8.05775471766822      0.33798869788524      1.32492019535980
  C   6.30099584404832      0.21999223970863      0.68629243186702
  C   5.49805144603825      1.31864536791699      0.52501744079906
  O   5.88987248199951      2.60226535296918      0.79294309009601
  C   4.88060103247584      3.39878787863658      0.31366573690790
  N   4.96685073730384      4.56784280473303     -0.11610636522988
  C   3.64597143962190      4.83733965968014     -0.73043797714189
  C   3.02777520128563      3.44699730886673     -1.04426870377196
  C   3.60482865869290      2.62530424402954      0.11050165056074
  C   4.16736751078160      1.23953215440497      0.03932523281526
  C   3.62549418844124      0.03384544989826     -0.30321691718692
  Br  1.85601420602415     -0.07773602166633     -0.91416326424685
  C   4.42845495850179     -1.11359023502361     -0.16954933865727
  C   5.73810412262410     -1.00770287162737      0.32269515138537
  S   6.39809295438471     -2.57760498297634      0.34427208082824
  N   4.96766536333500     -3.25208830717725     -0.27262242753366
  N   4.06490839226550     -2.40339110631814     -0.48129042466257
  H   3.78348504266582      5.45041723660891     -1.61836682494161
  H   3.02579049949298      5.40038632718888     -0.02785899806197
  H   3.41094418754466      3.07553620933549     -1.99612969039059
  H   1.94094926592609      3.45044098266907     -1.07995923740826
  H   2.96302774887791      2.71279161025736      0.99633715861403
