28
Coordinates from ORCA-job 16556optt
  Br  1.64112695350336     -1.00512371308834     -2.21072347237992
  C   3.06968133843179     -0.28045065752498     -1.21838498093663
  C   3.45935113247038      0.99178328987415     -1.36200851616488
  O   2.67222247643735      1.88119301565691     -2.07323906629519
  C   1.59465977213270      2.17604217360120     -1.25419712380603
  N   1.74676544819372      2.31807313690888     -0.01547046842320
  C   0.44614251333643      2.28994231355406      0.63428170681161
  C   -0.53229385097840      1.79788223726298     -0.45532234068727
  C   0.17949826410010      2.18855544374226     -1.76654756371769
  C   0.56180846795062      1.42923847596474      1.90391524179397
  N   1.07023007833204      0.07166398352721      1.69586303198049
  C   2.37201400049516     -0.28237080098433      2.27064143590217
  C   3.40730557730876     -0.04274923266954      1.19068436238495
  N   4.07822153239239      1.03242288473323      1.19453432241863
  S   4.68298659445725      1.64108916776505     -0.27726538053697
  C   3.41613998932131     -0.99501163202083      0.01681943840180
  N   3.60986049316883     -2.23974679233842      0.09760314944010
  H   0.18622605525647      3.30232837249036      0.96428310572964
  H   -1.53232556793898      2.21730738469686     -0.35944626470978
  H   -0.59623794413102      0.70805973050199     -0.40318400117506
  H   -0.08611551220745      3.19653412874171     -2.09504153345440
  H   0.02299144795306      1.49919546808264     -2.59169479429678
  H   1.22648076217009      1.96183924777988      2.58977901182694
  H   -0.42342418661451      1.38134493255511      2.37675276638834
  H   0.37998758052682     -0.62636930054658      1.91854743899178
  H   2.34626046095477     -1.33214186512246      2.56463458816358
  H   2.62799562106101      0.32248795429463      3.14462270345043
  H   3.73344050191593     -2.53201934743839      1.06856320289937
