26
Coordinates from ORCA-job 16563optt
  Br  1.72859091994780      1.00746229946146      2.51630704724995
  C   2.77442437044179      0.59605012699761      1.00299144863170
  C   3.54348766914129      1.54847798267567      0.42567053728243
  O   3.18793061685598      2.88791086424935      0.48412240099661
  C   1.90921948754984      2.90666893337613     -0.03812698223871
  N   1.51091256006265      1.98515936150695     -0.85614096473187
  C   0.15416599913060      1.90637810540991     -0.71928107796285
  C   -0.46026159145888      0.58316880804255     -1.06743345177148
  C   -0.23323487832142     -0.44035830438117      0.08670277719206
  C   1.09258377233487     -1.24655477933323      0.27471344474304
  C   2.44363081051018     -0.56476393321761      0.20774998189515
  N   3.21061144836424     -0.90570405615304     -0.77425103950112
  N   4.31219114259777     -0.17028872549148     -0.98470535707767
  C   4.50576241705973      1.14733119058042     -0.60200252802049
  O   5.37526432857526      1.83962797512820     -1.07893552754172
  C   -0.27332227153551      2.92812041911469      0.08811280352932
  N   0.87998662353689      3.57609178040962      0.51840779214893
  H   -1.53845610408535      0.67826220366697     -1.20435278241103
  H   -0.03385383631171      0.21860473414217     -2.00338413065294
  H   -0.99028384591280     -1.22014224867200     -0.02701684907407
  H   -0.47478554212509      0.07314578654128      1.01701963207677
  H   1.14608508203517     -2.01602155321287     -0.49536177804402
  H   0.99039772336956     -1.75661220622578      1.23669402736837
  H   4.87107831459503     -0.47151559895340     -1.77109099130101
  H   -1.24809639770293      3.23351051744891      0.42469766391908
  H   0.94597118134503      4.28899031688871      1.22489390329556
