22
Coordinates from ORCA-job 16561optt
  Br  7.51120150608442      0.18110641122544      1.96124053721211
  C   5.78133144231013     -0.49105597848019      2.01787044559648
  C   5.28345676148439     -1.40973777089464      1.18322498422888
  O   5.91642737973505     -2.07286676722495      0.15932462910547
  C   5.06023752099915     -3.08451974079673     -0.17596544086787
  N   5.32989473382956     -4.19845818821254     -0.66735480839969
  C   4.06947102364045     -4.96921851483060     -0.60886808647420
  C   3.18128121060090     -4.26586789391101      0.45234663977548
  C   3.64011411468487     -2.82427962886036      0.29691515174717
  O   2.99279553420848     -2.11864662354732     -0.77776827789049
  C   1.66274050773714     -1.90369758521899     -0.68464121458175
  O   0.95703114554153     -2.27405334790366      0.19539875163750
  C   3.92867328330807     -1.83142819568698      1.41017987969331
  N   3.15925788950602     -1.40061970601465      2.33738068188228
  C   3.66945197532208     -0.43536178088458      3.19830015210273
  O   3.09532194706763      0.06633505039001      4.10175345625792
  O   5.00586258567386     -0.00033124704610      2.98035300218008
  H   4.29887441676391     -5.99954907182687     -0.34670038718807
  H   3.60082633889738     -4.96931465234003     -1.59475998135468
  H   3.45097714884967     -4.61787621674525      1.44884616897335
  H   2.11329842115540     -4.39550133320369      0.31434384321864
  H   1.34147311259985     -1.33605721798627     -1.56542012685466
