27
Coordinates from ORCA-job 16564optt
  Br  0.83549831861618     -1.28249483298794      2.17031007978149
  C   2.23048880573425     -0.72855419935266      1.04437355380783
  C   3.15946876635824     -1.62720351435370      0.61346026932332
  O   2.80812548177937     -2.94759820596640      0.37943380144460
  C   1.66734641029153     -2.89602507959079     -0.39637585262196
  N   0.54324192868858     -3.49784589408452     -0.18140916629641
  C   -0.39879217542337     -2.72278949649142     -0.84165444355759
  C   0.18863725566621     -1.63598405649457     -1.43398830664194
  C   -0.24594878485825     -0.22308835527629     -1.68661812253838
  C   -0.29874392528395      0.61603295455552     -0.36429934478724
  N   0.90880762185078      1.22108956990238      0.24231038133072
  C   2.14398518949766      0.56168222504866      0.38380025710756
  C   3.28333549466327      0.98611572893666     -0.20795067543321
  N   4.43345071105930      0.21987678349600     -0.15030034864017
  C   4.41824432774837     -1.16695164745466      0.02617416184837
  N   5.35876848815800     -1.97868706535405     -0.25645733486827
  N   1.53372827763239     -1.85965335009007     -1.26683630942377
  H   -1.44841910098534     -2.95397701809999     -0.76742199239250
  H   0.40120058217168      0.25895190427197     -2.42525851242416
  H   -1.25878855645656     -0.20961236947848     -2.09195860651086
  H   -0.79528788900351     -0.00194880499954      0.38212113325747
  H   -0.95179701879372      1.46939217644858     -0.54925781137381
  H   1.05125725484462      2.15999553300922     -0.09798881687775
  H   3.34109806649042      1.90675730207576     -0.77209668925623
  H   5.26877828654438      0.59701328578131     -0.56903025577556
  H   6.16465603792289     -1.51165080728864     -0.66644768645130
  H   2.24266014508654     -1.18684276616235     -1.50563336203024
