20
Coordinates from ORCA-job 16576optt
  Br  1.09621448772992      0.03221148505182      0.02552450164500
  C   2.95964966959010     -0.06253862080414      0.16971357990012
  C   3.63147128531427     -1.21569093398126      0.05584828712763
  O   3.11999102967242     -2.46319832367708     -0.16180043166451
  C   4.16006571523109     -3.33215763770120     -0.23505522551071
  N   3.97108597290024     -4.53432601927565     -0.56139959590913
  C   5.06397185054901     -5.39973523214840     -0.59984052564831
  N   5.11565513403194     -6.31248473611002     -1.46925402650509
  C   6.11304779844648     -5.27031978676464      0.46406965782056
  N   6.83353868933249     -4.27860289456978      0.76902755346918
  O   6.62536922387796     -3.09337324618166      0.00245063166564
  C   5.40592989587914     -2.57053359380954      0.02738906994721
  C   5.06152976676793     -1.27049885926427      0.16913626316523
  C   5.80750626192911     -0.02333562131045      0.40693399910694
  O   7.00726229947966      0.06403743545563      0.49013665357781
  C   4.90352816199352      1.16353059535007      0.52259895355689
  N   3.63243902845592      1.12472044845706      0.40645250349276
  H   5.94639424943864     -6.89204685216903     -1.35493323190628
  H   6.34202499573059     -6.15721715812835      1.04990986330861
  H   5.38632448364954      2.11955955158092      0.70309151936045
