20
Coordinates from ORCA-job 16579optt
  Br  1.17540672588033      0.11370397853058      0.03731124883887
  C   3.03472331564383      0.08492270958406      0.03854848413394
  C   3.76107362251350      1.22162635383086      0.03829830559305
  O   3.18447757884726      2.43146645573598      0.03735172148966
  C   3.91925021554350      3.59497539262405      0.03679321652018
  N   3.28101668295572      4.67794216979381      0.03596718475895
  C   4.03034019981507      5.88493953666294      0.03527698414402
  N   3.45638683364330      7.01005827005967      0.03430142854582
  N   5.44740809468521      5.87208748953760      0.03580500986348
  C   6.05330624627024      4.75628235284850      0.03670198169764
  C   5.35968337667038      3.47836338054293      0.03735839872629
  C   5.92788168688211      2.26601980695416      0.03845478931280
  N   5.13479284813571      1.13932065582979      0.03900523920700
  N   5.80889252163225     -0.05929024312471      0.03985426202912
  N   5.18155869582152     -1.12108511762278      0.04027725910745
  C   3.73193368930295     -1.18938605501520      0.03987772608842
  O   3.21785566885421     -2.26975894269133      0.04067127261496
  H   2.44663194274101      6.86838481254351      0.03411488430406
  H   7.14168014742793      4.75328853946288      0.03705555441575
  H   6.99069990673394      2.06313845391268      0.03897504860855
