20
Coordinates from ORCA-job 16577optt
  Br  1.94869971192682     -1.46913849818428     -1.37428193675899
  C   3.17554173725804     -0.43104374078789     -0.41012074563688
  C   3.03983706440944      0.90959552138378     -0.35733825370128
  O   2.02107903474529      1.51489862568829     -1.04203953848705
  C   1.02903615469150      2.01122900305363     -0.26897901558580
  N   -0.04341967391208      1.38820902272769      0.12613112271891
  C   -0.71862189227522      2.38275933188952      0.76555996803469
  N   -0.12038925189492      3.55193838430294      0.77488805707293
  N   1.03049057709194      3.29940230818679      0.11270610647799
  C   1.97815876364208      4.28436974355618     -0.19192770010585
  C   3.30011453812645      4.08969591898485     -0.15828014476174
  N   4.05238097603047      3.06106151098466      0.36040027622030
  C   3.96949431046100      1.79501634007037      0.34529197081233
  S   5.23308007958607      0.99403836923097      1.28859328538355
  N   5.12661243365095     -0.61505381472852      1.00663487127808
  C   4.23655692184716     -1.15105588235902      0.26443155563418
  H   -1.68011921386623      2.23569398317816      1.22910828802437
  H   1.56001755892171      5.24200543646111     -0.46140219661759
  H   3.90591861860288      4.93769387970064     -0.45685100891704
  H   4.26753155095662     -2.22931544333986      0.14547503891488
