20
Coordinates from ORCA-job 16574optt
  Br  0.91491125340977      0.09141711715034      0.05699050246129
  C   2.77340938043853     -0.05807899306151      0.05052583935663
  C   3.35423319630777     -1.26702885203813      0.04519156730296
  O   2.61157957675995     -2.41374865957913      0.04305985640281
  C   3.27771090222614     -3.56611294084060      0.03856010859688
  N   2.79120423295243     -4.74153751792884      0.03593653635796
  C   3.98768809821969     -5.52951522125179      0.03174769710024
  N   5.13098620556171     -4.90710810124786      0.03172605110283
  C   4.73971984230760     -3.58575387529939      0.03590071283951
  N   5.45703548499145     -2.52816153469058      0.03734581151541
  N   4.74944593468203     -1.37758079295366      0.04164266089714
  C   5.48838437052293     -0.20272459059168      0.04373297114442
  N   4.99833688609851      0.96219313730444      0.04798290487764
  C   3.59787127287452      1.15803877007590      0.05116505777845
  N   3.07302424512448      2.30923471927326      0.05425746967589
  C   3.86758241130505     -6.94509275653116      0.02873784934147
  C   3.74828603171620     -8.13628205607174      0.02590881883838
  H   6.55720196816182     -0.38725050060033      0.04139190253852
  H   3.80794103860851      3.01448904970896      0.05398382638433
  H   3.64844766773087     -9.19639640082650      0.02321185548724
