23
Coordinates from ORCA-job 16580optt
  Br  1.04472184152540     -2.05547195344780      1.85094421567976
  C   2.32991647272596     -1.12350094309661      0.82557624821586
  C   3.32420513471164     -1.81621841265630      0.21042909156647
  O   3.07687439961467     -3.12388180645046     -0.21753350745152
  C   1.91167863077933     -3.08807582875267     -0.92587389823094
  N   1.45499246443188     -1.96471288620551     -1.37760481549934
  C   0.11507528783182     -2.05575684867274     -1.48918570564576
  O   -0.58883251522226     -0.91899204113926     -1.53334802672335
  C   0.10873605241177      0.32137465892979     -1.30338516250497
  C   0.61251506169658      0.65119196254103      0.13814583016742
  C   2.04285028152296      0.22519019975840      0.42063410607147
  C   3.07566884885684      0.88697868426145     -0.15012852554403
  N   4.27751563922326      0.27225382584804     -0.36060737828390
  C   4.43291727404069     -1.11527568678146     -0.42159854022022
  O   5.39706772018091     -1.62823324816500     -0.94173647452666
  N   -0.46138266852765     -3.22363366745971     -1.40994030476119
  S   0.71110858103645     -4.31512335825861     -0.97254495488021
  H   -0.64784261158299      1.05910674465584     -1.56128001348463
  H   0.94007212481088      0.40362141570514     -2.00470773926659
  H   -0.08970295703151      0.25887852874597      0.87175695804890
  H   0.56242882659056      1.74071669912618      0.20572686265728
  H   2.97374684302579      1.89173813244120     -0.53956497646021
  H   5.03466926734699      0.78482582907308     -0.79017328892364
