19
Coordinates from ORCA-job 16592optt
  Br  1.03516790792118     -0.42276453003218      0.04088102721444
  C   2.89898513016956     -0.24629370468364      0.05688618926772
  C   3.69519911039909     -1.33957484990316      0.07017018844700
  O   3.04882577974884     -2.55950700301722      0.07604781277421
  C   3.79684707397030     -3.66844919649975      0.07484642716349
  N   3.25727715538398     -4.85028932543653      0.07408555766070
  O   4.31495538324615     -5.71703931433293      0.07216619752439
  C   5.46126379261498     -5.01887552195674      0.07177500116676
  C   6.69276770107217     -5.73080568563850      0.06848375794187
  N   7.71267001823893     -6.25385659023263      0.06548853071244
  C   5.20880888382988     -3.68915995711034      0.07392268936802
  C   6.01922893313379     -2.44757608210849      0.07560362099997
  C   5.13862366750347     -1.20964892391204      0.07425087259645
  N   5.80235812555826     -0.10480961764172      0.07466007406418
  C   5.26447082425100      1.16084968369256      0.07222495317405
  O   5.90209366282946      2.17084433462778      0.07965981738258
  S   3.46631361148736      1.36684166262593      0.05278974388164
  H   6.67278205202790     -2.38555812521712     -0.79690626200944
  H   6.67036118661363     -2.38632725322326      0.94996380066955
