22
Coordinates from ORCA-job 16593optt
  Br  1.06213750456218      0.25837672439705     -0.31636717670176
  C   2.90671008165167      0.09382411278714     -0.03672246018377
  C   3.73363978315456      1.14868399681719     -0.26406242328463
  O   3.15733133256342      2.29438467662663     -0.73012422672042
  C   3.70601476931958      3.49703447790466     -0.38615616567659
  N   2.87326602753531      4.44559856479867     -0.25528379391303
  O   3.39071309509878      5.68358606104518      0.05014750014279
  C   4.72201365782943      5.89850927864827      0.33998632457792
  N   5.12207816531216      7.02752106483114      0.72881122455306
  C   5.62750411763232      4.77645244410247      0.14208402836714
  C   5.14590045756009      3.59393464447757     -0.23627616660712
  C   5.92168981546075      2.35658604033508     -0.55304959861987
  C   5.16481370448825      1.13494157613949     -0.09633065953816
  C   5.79797200614007      0.06042114828006      0.40207526476253
  S   5.06969923427811     -1.42280979246389      0.83765445103514
  C   3.33998373946226     -1.21955825816971      0.43043512642592
  O   2.63005767281213     -2.17308782391877      0.59866586102323
  H   4.35220696546648      7.69076454245015      0.80451263086676
  H   6.67952043974917      4.97003395720340      0.30158728588465
  H   6.91441815430222      2.39192163609467     -0.10743828596219
  H   6.05013721950875      2.30577108813450     -1.64072788804468
  H   6.87319205611226      0.07110983947905      0.53557914761309
