21
Coordinates from ORCA-job 16591optt
  Br  1.30627823555211     -0.02622699627267     -0.24737843452840
  C   3.16870894795681     -0.07629797996418     -0.14971604050418
  C   3.91826757349459      1.03590257108852     -0.14674406179001
  O   3.45347124532861      2.32797104193900     -0.20255653397297
  C   4.55204055184082      3.11457889650680     -0.17742711387768
  N   4.73153557718031      4.38861089321315     -0.20601948708038
  O   6.11224902215968      4.50130434898209     -0.15291040993613
  C   6.70329898579857      3.28386120038219     -0.09391177821420
  C   5.73099554917930      2.35258106231840     -0.10700757946493
  N   5.32471716111693      1.02647418538727     -0.08591834434700
  C   6.12630250345361     -0.12115943368586     -0.02813598972155
  N   7.40017041498368     -0.15305258078166      0.01704158024982
  C   5.29107335409179     -1.28644540690551     -0.02466179067684
  C   3.91179038091819     -1.30340935877644     -0.07984206277482
  N   3.45242312548616     -2.58717422010579     -0.05309390453624
  C   4.53202097675477     -3.32916738699149      0.01600195363898
  N   5.67182429751599     -2.59588860864676      0.03529224874544
  H   7.77791738489889      3.28211929915747     -0.05062145263929
  H   7.82651413675136      0.76870265767579      0.00671226652788
  H   4.54303917955096     -4.40673626008572      0.05486531523476
  H   6.62536139598683     -2.91854792443457      0.08403161966774
