21
Coordinates from ORCA-job 16598optt
  Br  1.29573262128021      0.26072049326066     -0.24030490817453
  C   3.11966558418959     -0.08142406071887     -0.10111712029817
  C   3.62380199016819     -1.31275506208627     -0.24385931066975
  O   2.96504982324868     -2.46168440626938     -0.50888870236892
  C   3.89735090174129     -3.48580257214228     -0.57494674457161
  N   3.48747863533616     -4.62468726929798     -0.91362558853624
  S   4.35965459412860     -6.03146824094591     -0.97043382793249
  C   5.77723430484003     -5.76437493066920      0.12195344018847
  N   5.96903364060780     -6.47301836920176      1.14264891081896
  N   6.74481060294944     -4.82848832642765     -0.25441842312915
  C   6.50566267366656     -3.59562760449929     -0.39937303238522
  C   5.22314201913259     -2.90392868178377     -0.30751527414198
  C   5.03201376179378     -1.57197427495485     -0.14313686395679
  C   5.91077958718859     -0.44137535624556      0.09517360784646
  N   5.46795667997540      0.74393011254941      0.23625669065900
  C   4.07041802076452      1.01640024723069      0.16146163307094
  N   3.65559432413331      2.20422741424893      0.31226060076981
  H   5.18768008559438     -7.10493430082807      1.30815026964769
  H   7.35817689825105     -2.96253748904116     -0.64078679676467
  H   6.98410631065141     -0.59733758955974      0.16741090164454
  H   4.45665694035837      2.81514026738207      0.47609053828364
