20
Coordinates from ORCA-job 16599optt
  Br  1.16722003878749     -1.72116853629062      0.68853159051312
  C   2.68525933853514     -0.67103000528834      0.39739568109631
  C   2.65516188099176      0.65652230758942      0.58691920362248
  O   1.50805287063916      1.22113285514756      1.08974303812878
  C   0.89947359863927      2.15158559381815      0.32203251648890
  N   -0.35396340103191      2.06008633195787     -0.01025670988272
  S   -0.71709367884012      3.42075756516726     -0.81994192598327
  N   0.72364749200356      4.15438520205286     -0.74807787214554
  C   1.53809831748584      3.35142476437213     -0.09943607035576
  C   2.91094644553261      3.70460202415602      0.25527457517606
  N   3.86776455387093      2.90808927958331      0.50290427075962
  C   3.84383982487123      1.51568968286687      0.35521245160215
  C   5.01748627836987      0.96262465817066     -0.01140412235318
  C   5.15646659944528     -0.46667180314927     -0.25154867818488
  O   6.19271366509172     -0.98100854571737     -0.59859047592256
  C   3.91848290943895     -1.34015258959189     -0.04338504100618
  N   3.96172286951029     -2.58465031745026     -0.24960015222415
  H   3.11853954035425      4.77026946743417      0.32694869355290
  H   5.88785412923128      1.58944886867459     -0.14218874337189
  H   4.91032672707336     -2.83293680350314     -0.55053222951019
