22
Coordinates from ORCA-job 16609optt
  Br  0.87441037511975     -0.39201153735318     -0.16144623755834
  C   2.74365860819485     -0.22174817896124     -0.08201742525005
  C   3.50760221509867     -1.31171412688136      0.21131778749294
  O   2.84402725404790     -2.44956418282993      0.52472096946865
  C   3.07104890379308     -3.67839631078573     -0.17196688410170
  O   4.08337764773395     -4.41512722124842      0.44904283171491
  C   5.28061349272649     -4.07636520349630     -0.18064224747816
  C   4.89086339194376     -3.66943774327017     -1.57315043645682
  C   3.58419551844810     -3.45238947922859     -1.57430323397607
  S   5.99703443400360     -2.64492420256850      0.70679123941698
  O   7.29449301314952     -2.40628636889084      0.13466920464843
  O   5.85311823562658     -2.86680875080885      2.11028605030848
  C   4.95329263759838     -1.26399365743707      0.21846419610407
  C   5.65280070359783     -0.15755722422358     -0.09409472375404
  S   4.99856187745216      1.36629312453340     -0.46469897343848
  C   3.22709679810591      1.12677955951216     -0.36850455908881
  O   2.54113697111332      2.08809066976786     -0.58027782536779
  H   2.13474127063501     -4.21716743501362     -0.06665165306940
  H   6.02159525981363     -4.86759308423932     -0.07032811086428
  H   5.59978644831634     -3.51972522383679     -2.37289371554699
  H   2.96740358742215     -3.08839143354901     -2.38200222102072
  H   6.73614135605896     -0.19696198919092     -0.11331403218281
