19
Coordinates from ORCA-job 16600optt
  Br  2.05006785930874     -1.24222955118623      1.76708353189294
  C   3.18732800399405     -0.15810797230008      0.76523110854380
  C   2.96757216418898      1.16476682052134      0.63282172712522
  O   1.90002222297136      1.81332125006095      1.17307654174203
  C   1.01080691026922      2.25225136539964      0.22120106895776
  N   0.02871463405344      1.51414975594745     -0.19082780738459
  S   -0.80977639456389      2.40187180611197     -1.26386134439834
  N   0.10324665533828      3.74963982506095     -1.23644440309684
  C   1.07060583607753      3.54666783099571     -0.39294128504032
  O   1.96543828750781      4.50710198986000     -0.11203838910603
  C   3.22065021466414      4.12260068699799      0.36712075555727
  N   3.75026319720906      4.71040805225093      1.33521481073427
  N   3.89623866105130      3.19140405765742     -0.40856379632588
  C   3.88110436182722      1.94143364361233     -0.17573145713497
  N   4.81590598713429      1.13001389137119     -0.79023158560428
  N   4.99527069536091     -0.17176478041744     -0.62098973372316
  N   4.23609136667632     -0.81356195680043      0.14922979044983
  H   3.11637577059177      5.40031561072946      1.73167845892305
  H   5.49007356633945      1.57071767412682     -1.40302799211175
