21
Coordinates from ORCA-job 16608optt
  Br  2.06925934936537     -1.04947643198567     -1.51215189454238
  C   3.58840586193905     -0.43914572030611     -0.63683191735935
  C   3.86791317347072      0.86513729123959     -0.44041890177692
  O   3.04668544417985      1.86163782148598     -0.88309964688179
  C   3.52732354114921      3.16000490543450     -0.62576773416167
  O   4.09227820466204      3.25712326226322      0.64391706045520
  C   5.36141530441720      2.58777396158992      0.53316623949685
  C   5.98280519795321      3.20045495289047     -0.72240920099393
  C   4.73884403491222      3.48546108766614     -1.55675360529841
  O   4.66718113605745      3.89843541448401     -2.66930417431886
  C   5.06313311871968      1.12833478925669      0.30309125883433
  N   5.87525320091778      0.22918108241637      0.73950157535609
  C   5.60833768439311     -1.10063202568196      0.48666421192845
  O   6.28343702061560     -2.02544254662768      0.78765210988607
  O   4.40170844888311     -1.38734096714312     -0.19655254914730
  C   2.39059324424288      4.16295468959815     -0.76278952239075
  O   1.32366799822992      3.88542438309161     -1.20676487558367
  H   5.92029870891685      2.73271118054748      1.45156974946195
  H   6.67563351192607      2.55221673861170     -1.25603812147529
  H   6.48147657555286      4.14233636007939     -0.48924893451414
  H   2.66234923949571      5.17684977108924     -0.41943112697448
