22
Coordinates from ORCA-job 16601optt
  Br  1.36950418911167      0.56809435515316      1.07062104759569
  C   2.95910475683620      0.25788364269519      0.12753467618254
  C   3.88311264225047      1.21376748377718     -0.05438694363694
  O   3.93022966623044      2.45264630692975      0.54265065703333
  C   5.25959856261991      3.00935969689984      0.46804368945116
  O   5.99827946133733      3.00289174617799      1.66302841337240
  C   7.18315112459558      2.17326311824189      1.58559852983957
  C   7.21933163819791      1.53737518414570      0.20588527339804
  C   7.25788945830149      0.02425961296179     -0.09979485242158
  C   5.82596622416045     -0.25797195389030     -0.56201186516490
  C   5.15124316693433      0.90988903336478     -0.63497079035709
  C   5.99201440583244      2.08084296945730     -0.44050746630501
  N   7.28977137891031      2.33305034679907     -1.00999451273305
  C   5.12022683217827     -1.51663416359445     -0.47995437812490
  O   5.58143966729876     -2.62457842325458     -0.49343799455518
  S   3.28809304614681     -1.38225716994720     -0.34676064431321
  H   5.12041329991958      4.04241648875185      0.15270193840738
  H   7.11388247952396      1.39276697159137      2.34391218272317
  H   8.04093226364997      2.80979950379919      1.80889148982689
  H   7.46941640915148     -0.58218596885363      0.78210610266023
  H   8.02564753054904     -0.19148333760559     -0.84249026033244
  H   7.55875179626350      3.29880455639969     -0.83366429254612
