17
Coordinates from ORCA-job 1661optt
  C   2.38282397872024      0.11279775549288     -0.80154989366931
  O   3.66938842448081      0.67556653904681     -0.77618887314852
  C   3.66828948964629      1.98752958042411     -0.26683851839875
  C   5.09261892908301      2.49240412361853     -0.28375128683930
  C   5.22148498363637      3.91076738949032      0.22268004882269
  C   6.62465540483048      4.45035025853921      0.35055153105431
  O   4.25517378622913      4.57064325597582      0.51375417330129
  H   2.46989807067113     -0.88842182644160     -1.21841973627350
  H   1.70550104750359      0.70558765134754     -1.42685020027825
  H   1.95925613837683      0.04720903592692      0.20716913825250
  H   3.26958330631586      2.00484981672158      0.75489533220404
  H   3.02711067418478      2.63650534623993     -0.87462040356544
  H   5.49264006304845      2.45022848704937     -1.30158545289160
  H   5.73498123773920      1.84023656008807      0.31514083421217
  H   7.15006222139079      3.90375345392438      1.13682436225479
  H   6.59574517371409      5.50780797697222      0.59930361230904
  H   7.17978707042891      4.29318459558386     -0.57551466734616
