22
Coordinates from ORCA-job 16616optt
  Br  1.28912533510019      0.15844776216966      0.22198662758706
  C   3.16391476178383      0.06000357485956      0.06774832436023
  C   3.88138717975349      1.19432977213320     -0.29824377171187
  O   3.35882857631800      2.40454450907790     -0.58983507938480
  C   4.43107334749040      3.28374511503783     -0.92356871106376
  O   4.49977731126672      4.33393689246354      0.01185077244696
  C   5.61219603963905      4.09892408920489      0.76126096437166
  N   6.37093330072409      3.14462877250242      0.45420671992611
  C   5.75908065833826      2.50143364891980     -0.71596034105004
  C   5.25341214727707      1.12176881519396     -0.39235688434396
  C   5.89945531052794     -0.07777892882841     -0.13883241588510
  C   7.37250291667335     -0.19822766727253     -0.27725881108936
  O   8.04640631146164      0.67013263373770     -0.76343605884868
  C   5.09093288089169     -1.16806139866904      0.21965033895114
  N   3.75924068808136     -1.08011987027629      0.31756562351098
  C   5.66827875554980     -2.45471031079727      0.49351316433091
  C   6.15977104290278     -3.52336455886242      0.71995358874223
  H   4.23014940618386      3.69956169465083     -1.90627314418133
  H   5.76095163323442      4.79378454653666      1.57664180297311
  H   6.44755800933660      2.52001323066125     -1.55677415109089
  H   7.81268793112228     -1.14127353984262      0.08273057088347
  H   6.58633645634311     -4.47771878260065      0.92043087056593
