26
Coordinates from ORCA-job 16611optt
  Br  1.14618012764393      0.22747251250953     -0.55624696394992
  C   2.97150061278034     -0.00364820429945     -0.21727700159782
  C   3.52459605006364     -1.23203546713004     -0.13341433590681
  O   2.72965917356543     -2.35430199825072     -0.25426254994473
  C   3.50266763958796     -3.44848719171443     -0.63836569877061
  O   2.76569919447578     -4.62502528295348     -0.59137351293557
  C   3.66208788458120     -5.69931532811435     -0.29887301522920
  C   5.06196210022044     -5.05622221907340     -0.07442770664874
  C   5.87013047553721     -5.76111427509175      0.91063656848110
  N   6.50023044993130     -6.30389827845629      1.69861700563855
  C   4.63591491843436     -3.65556915961794      0.34531212975265
  N   5.55045813292028     -2.56151377844745      0.18750297550327
  C   4.94792821225606     -1.30417452871908      0.14663099545680
  C   5.66338427178805     -0.16342724751889      0.32885531826474
  C   5.06913173512355      1.14942319859350      0.24404026325130
  N   5.60923192662726      2.30074897139053      0.38210615709121
  N   3.69997851723526      1.12520688682532     -0.03349595377721
  H   3.90397364369884     -3.26779239006349     -1.64829286907428
  H   3.67749241533564     -6.40294254311906     -1.12974674763507
  H   3.31723966218987     -6.20835768751571      0.60092292845806
  H   5.62052689987178     -5.00135126012306     -1.01127038287101
  H   4.18927917555979     -3.70642210283725      1.34690754420948
  H   6.40845315309332     -2.60047702884539      0.71892611550109
  H   6.72478784470340     -0.21893703450879      0.53195162972305
  H   6.60011529732420      2.21526708316203      0.58088315643005
  H   3.25239048545102      2.02789435391918     -0.10124604942039
