26
Coordinates from ORCA-job 16614optt
  Br  1.04114487791672     -0.22777505123929     -0.45028582990613
  C   2.89418580518356     -0.06745962483111     -0.28624898597563
  C   3.57177944350231      1.00076312739066     -0.76544711878437
  O   2.86334604843784      1.97921615304548     -1.36089281139610
  C   3.44864616769514      3.25648304382918     -1.44643465258351
  O   2.59962443923112      4.01268951385632     -2.23659178895439
  C   3.14667769280860      5.31417705426241     -2.41789133527022
  C   4.53371060587108      5.22740566896534     -3.02808528866936
  O   5.38041299002415      4.41370484972372     -2.22612647674343
  C   4.81919362981491      3.13658673347421     -2.07401963759381
  C   5.67776531902424      2.30768218480184     -1.15230597172051
  N   4.94922576288840      1.09377446043417     -0.76932912949321
  N   5.76139182202048      0.06907564286695     -0.46654125805355
  C   5.32926856639018     -1.01610071401320      0.03416933744392
  S   3.69011103547919     -1.33049322432029      0.58939650541806
  O   3.64858785994053     -1.06689555308169      1.99944162575138
  O   3.26790924202813     -2.61522673251460      0.11640158057618
  H   3.53113993124639      3.69621297233672     -0.43858722165098
  H   3.19371153344706      5.82951350019399     -1.45154554865491
  H   2.46281116437147      5.84847191700604     -3.07413237641425
  H   4.99657903785413      6.21125268756634     -3.07943808923856
  H   4.46926040570579      4.80492450742071     -4.03718323679032
  H   4.69647422559345      2.64381214214147     -3.04827926020099
  H   5.92930062741044      2.89236518945353     -0.26383652678853
  H   6.59915022112075      1.98670637355534     -1.63065174072213
  H   6.03759154499390     -1.81886682232427      0.20544523641538
