22
Coordinates from ORCA-job 16615optt
  Br  1.24657665356008      0.12111382109740      0.25372669310222
  C   3.12433843062542     -0.04775725646545      0.13125468559135
  C   3.68236663203284     -1.33301338483423      0.06304450595049
  O   2.84678518297370     -2.41022801111018      0.03710899523560
  C   3.54043182468531     -3.53379160030384     -0.41458025388017
  O   2.81187155634904     -4.73705701629745     -0.30674674811432
  C   3.79506224954648     -5.65245135153345     -0.06810268779125
  C   3.46678537182202     -7.10396334027028     -0.22960992453490
  O   2.39075967902948     -7.49357909820166     -0.56696439409210
  N   4.94579331159778     -5.24790009119943      0.28240249763240
  C   4.76846906640818     -3.81310673035180      0.43129442280843
  C   5.78226016373216     -2.76650047670937      0.05489730573712
  O   6.95064657854268     -2.90991149080455     -0.14832761483617
  C   5.07718598409982     -1.42896030253010      0.01205100405319
  C   5.82689876169120     -0.25632969810113     -0.00581082788342
  C   5.17039453962934      0.95450736935333      0.04440175905947
  N   3.83923916651945      1.04406347900874      0.12356103719747
  H   3.79602472148897     -3.38295386060504     -1.47378989934386
  H   4.31869000071268     -7.76378434183104     -0.00279548723464
  H   4.51234091567239     -3.60666766314296      1.48222578067792
  H   6.90570532434858     -0.32395236288094     -0.04939400944589
  H   5.71237388493236      1.89122340771346      0.02915316011108
