22
Coordinates from ORCA-job 16622optt
  Br  1.00968653785881      1.17240727953226      0.49211087226349
  C   2.76270299698661      0.62710019568027      0.09077687624724
  C   3.06526897929137     -0.71343994104625     -0.03478643226287
  O   2.16461129434149     -1.73642466878458      0.07727157815291
  C   2.87034026229229     -2.95070564293236      0.01199587435303
  O   2.85467405316600     -3.55849144707260      1.30177009857777
  C   4.09764546810099     -3.77942327803415      1.80408156046208
  O   4.31216273972312     -4.29283330881738      2.84472965350420
  C   5.12118621336434     -3.25747269628183      0.77128946685553
  O   6.29904252833008     -3.32315742662907      0.90443725577500
  C   4.32975928870621     -2.65049363882343     -0.36425116435130
  C   4.35181409547917     -1.14462515970181     -0.31428382381414
  C   5.38383027762559     -0.24118578205093     -0.47244456059357
  C   5.08803995192166      1.11382981507063     -0.35874472955733
  C   3.79578850919414      1.54229508276606     -0.08071695970683
  C   2.10184227105587     -3.88505606317363     -0.91927355880363
  O   2.62582101820932     -4.44381927920098     -1.83478356781873
  H   4.61675094244508     -3.07825884775936     -1.32509381076251
  H   6.39098105894568     -0.58052705013416     -0.67521436229124
  H   5.87085612441601      1.84906308695032     -0.48456606865508
  H   3.57879705965296      2.59796798745098      0.00928990684590
  H   1.03439832889322     -4.00174921700799     -0.66959410441991
