22
Coordinates from ORCA-job 16621optt
  Br  2.29908667470620      0.25615308433081      2.66226868023480
  C   3.40370189560990      0.17229943078071      1.15028543900580
  C   4.07664262092847      1.23896742421564      0.70076009453190
  O   4.22986905284648      2.43813504999781      1.38341715960945
  C   4.90310461904867      3.23737562874375      0.44814198238430
  O   5.60585706206763      4.38306377496823      0.84141606666739
  C   6.39480092275910      4.66541660601801     -0.27055583351525
  O   7.03710649668587      5.65303261709992     -0.34931554422567
  C   6.27800699415746      3.50632343324267     -1.30327095842263
  C   5.90212707283569      2.38894655222688     -0.32513334924247
  C   7.19252898409813      1.73627677767726      0.22283583861709
  O   7.19028960997634      0.43125361374949     -0.45543119385195
  C   5.88791229617563      0.06843702754621     -0.44066803606673
  C   5.07501967022939      1.13562695318205     -0.34475039131603
  C   5.42767353927985     -1.30558768072504     -0.22214526396327
  O   5.99079330265885     -2.32110028284868     -0.50109708042742
  S   3.74355449175393     -1.40114007716920      0.48813976883240
  H   4.13502916750512      3.54983067519845     -0.27352643952071
  H   7.21580224110433      3.38646024798530     -1.83662536700257
  H   5.48803530027921      3.75825437316276     -2.01272176980920
  H   7.16482780050281      1.54679388372387      1.29844367380758
  H   8.11023018479089      2.24818088689309     -0.05346747632682
