27
Coordinates from ORCA-job 16636optt
  Br  1.31350474991094     -0.02209095973951      1.04249479143537
  C   3.09773635031430      0.11459025817696      0.51367992120682
  C   3.81231399344882      1.24533505874995      0.61253045427502
  O   3.32312008634139      2.40487507976796      1.12480843800759
  C   3.54442107325930      3.50600030706700      0.24178630019404
  C   5.03260669750873      3.73220636286416     -0.08819010961553
  C   5.88713339896954      2.52754266685807      0.39910344082673
  C   5.17916759319124      1.22881997457301      0.17959973138393
  C   5.71598945859987      0.10542507224692     -0.33174677154016
  C   4.93971055442819     -1.11610922571772     -0.42223665208083
  O   5.29923059321726     -2.17653246398636     -0.83413481964364
  O   3.62305730702172     -1.01996302495142      0.04802825654672
  N   5.51798712161835      5.01895006002129      0.38783101665520
  C   6.66166527925912      5.41675829081352     -0.43982615679394
  C   6.20453268943394      5.02505244022006     -1.84121895361565
  C   5.27248345009589      3.85255489424924     -1.59893994180032
  O   4.80398582570982      3.11676022659574     -2.41838935339120
  H   3.15484880748132      4.38414567094437      0.74954050832944
  H   2.98246618659901      3.32880099626474     -0.67874491034133
  H   6.01964858065367      2.65275959126594      1.47878196743189
  H   6.87454713585042      2.52371457468511     -0.06381264107450
  H   6.73740287394042      0.04825012848773     -0.67914117490996
  H   5.72088112056689      5.02309418869434      1.37982300086974
  H   7.58577522945552      4.88648064115754     -0.17889976015780
  H   6.84408554843045      6.48422616836398     -0.33462753924499
  H   7.00028010339788      4.75853345106102     -2.53334095191644
  H   5.60741819129594      5.81881957126634     -2.29575809103618
