26
Coordinates from ORCA-job 16630optt
  Br  0.96641522463751      0.16971515068531      0.36561273640184
  C   2.81813209342117     -0.09216499400324      0.34124401401131
  C   3.41934011832648     -1.29797479717797      0.29505789140046
  O   2.96539132183436     -2.56926293895954      0.08829484008296
  C   4.05473932943458     -3.29124916478189     -0.56528940990397
  C   5.35921942865864     -2.60059646504710     -0.11519225833081
  O   5.89238107760958     -3.25088862693483      1.04124871617161
  C   7.21714934879614     -3.56007915244678      0.88291974479497
  N   7.94126555754022     -4.04215424256238      1.78328080610449
  C   7.64296463313994     -3.24214958907197     -0.52952783253924
  C   6.59826346069160     -2.23672196540568     -0.98765048373805
  C   6.92449500409907     -0.74468349198415     -0.60564163082606
  C   5.61103709383282     -0.22362133804801     -0.07376509032713
  C   4.81012872511839     -1.25936292347737      0.18249432972389
  C   5.01247785282250      1.09707381373214      0.01767059434467
  O   5.55251716692346      2.17289047777655     -0.12982887755027
  N   3.62686468961466      1.02738056919235      0.30079262116067
  H   3.91379110487429     -3.20366892511928     -1.64485235173016
  H   3.99279328327071     -4.32777968944284     -0.24800760938778
  H   7.41866289577544     -4.17488815356454      2.64787877125008
  H   7.59953031219390     -4.16221802018782     -1.11615669915979
  H   8.66631469865803     -2.87665780952142     -0.54861657997702
  H   6.37080433249183     -2.30124869115321     -2.05045036232621
  H   7.27159198924442     -0.17044808866092     -1.46441222102663
  H   7.71279939570420     -0.69971487174582      0.15081647588327
  H   3.18192986128602      1.93347392791040      0.35907986549289
