30
Coordinates from ORCA-job 16633optt
  Br  2.11482536637769      0.82938457656286     -2.09501229312821
  C   3.22379155552030      0.37051492698550     -0.67073757579137
  C   3.98473669501250     -0.73768127596336     -0.67874095139551
  O   4.08452303834467     -1.64163497152146     -1.65682125069823
  C   5.17064299424392     -2.53331129945197     -1.34960320344191
  C   5.49059831936670     -2.39726953621301      0.15103170477607
  C   6.97496382657359     -2.58728646895991      0.53210061683042
  C   7.16463337075430     -4.04232114139179      0.08472378191076
  C   5.78721115724972     -4.65905181012594      0.47665657387147
  N   4.95888003000413     -3.52849295486695      0.96244222376466
  C   5.47914264988590     -3.18588126182271      2.30560275939743
  C   6.89809428476100     -2.58720125325125      2.06525561246006
  C   4.82099297044757     -1.07650882644393      0.44189094238982
  N   4.91887370505102     -0.33034998233570      1.47943938977555
  N   4.17912469946777      0.78338876004098      1.47526909117400
  C   3.28366109458601      1.24066653856739      0.49927342121508
  N   2.59943224944658      2.30986800892297      0.59707758065000
  H   6.02891042207605     -2.23360011872318     -1.95558372386086
  H   4.85234935891120     -3.53134527130635     -1.63309341928191
  H   7.67181939832409     -1.87280476002756      0.09890738435288
  H   8.00307169228706     -4.51907370710041      0.59038825634622
  H   7.33746224491820     -4.11532518674518     -0.99060343854609
  H   5.86450111513687     -5.40463380371622      1.26509185495411
  H   5.30332810050507     -5.13915654657874     -0.37180665252049
  H   5.47854074974933     -4.07714437916684      2.92942892980226
  H   4.82265022549105     -2.44985718084238      2.76294104341313
  H   7.69157441711697     -3.19750392572996      2.49673279600942
  H   6.97184574194487     -1.58296185715943      2.47640439998842
  H   4.27962310026400      1.34175286446053      2.30792303608885
  H   2.76619542618177      2.80082184390405      1.47242110949397
