28
Coordinates from ORCA-job 16634optt
  Br  2.27483725487717      1.33616043734025     -2.20496491552049
  C   3.44419833295670      0.74140089442016     -0.87284619357926
  C   3.89437740986150     -0.52287756274575     -0.87506537806186
  O   3.72511979774253     -1.52440943963780     -1.76471107730294
  C   4.91406831977142     -2.35052008145856     -1.68126016157965
  C   5.32974757653939     -2.24141397581509     -0.20698513392607
  C   6.79640042425479     -2.10311503473937      0.25374648489755
  C   7.20142775740734     -3.20731171592279      1.24198774460148
  N   6.66917052948034     -2.79757299952185      2.53663732100314
  C   6.89855837069587     -1.35555944827255      2.60056358757939
  C   6.81971365272797     -0.80869224976459      1.14532194210100
  C   5.56136534377957     -0.07598936058940      0.77396961231418
  N   4.76120060552781     -0.94540327352135      0.09074642030641
  C   5.16385440249347      1.20556435597657      0.85148813498334
  Br  6.21632679714369      2.44347273669664      1.80716211298740
  C   3.94551974436688      1.68985035444406      0.14763025010914
  N   3.40906967659600      2.83623471732902      0.27489394790659
  H   5.67369269059510     -1.93202628222807     -2.34665185027547
  H   4.63847096659198     -3.35041510807417     -2.00091627874227
  H   4.81808616180142     -3.01630323097381      0.37448383565725
  H   7.46673714091215     -2.02122182026491     -0.60213784370661
  H   8.29038025732488     -3.26038175373513      1.31329135153331
  H   6.83414025811856     -4.19398018860636      0.96043674836192
  H   5.67720168962131     -3.00004422293331      2.59169138417465
  H   7.90148315372831     -1.17843793868183      2.99218222037844
  H   6.18703205000717     -0.87229403834356      3.26751860424333
  H   7.67532560330597     -0.16989114391516      0.93060615944876
  H   3.90049403177066      3.39917737353871      0.96618097010731
