26
Coordinates from ORCA-job 16641optt
  Br  1.66181612068308      0.42630415078343      1.10253203163426
  C   3.07906509356819     -0.18414819410922      0.03499777449596
  C   3.67971807469896     -1.36047755180907      0.33851066273225
  O   3.24337806752813     -2.05004341891062      1.41266292898623
  C   3.29256861306576     -3.46765192670984      1.27926263617044
  C   4.72800765172176     -3.93805110663110      1.16465017529279
  C   4.86187449405736     -5.42425290956506      0.78635155356513
  C   5.36857646612406     -5.42638155329439     -0.64214262286238
  C   4.60030475347141     -4.67407956047906     -1.65708810626493
  N   5.78801457844171     -4.08801193338117     -1.04902466650936
  C   5.50259078065256     -3.17052964838467      0.06322516356326
  C   4.81501119086039     -1.90030152016865     -0.41633432506158
  N   5.31198588239671     -1.33936791357675     -1.45123773619017
  S   4.77096393024924      0.05992953480730     -2.10083190468278
  C   3.44709547348077      0.66706665280526     -1.09438193683260
  N   2.84759333065135      1.75312615912497     -1.35597874738884
  H   2.68714665912448     -3.76442471551728      0.41771268779938
  H   2.81924347146851     -3.85954392821515      2.17759611552478
  H   5.19852915815705     -3.74347121299676      2.12859624387155
  H   3.91352263680681     -5.95665686747567      0.89056831554221
  H   5.58475463258770     -5.92167715495149      1.43212596137184
  H   6.00802457705397     -6.24245281007298     -0.95354318538859
  H   4.70735739574439     -4.91486137454818     -2.70615936771953
  H   3.62710122758500     -4.28491358880299     -1.38201401990870
  H   6.47384420244302     -2.86632062883504      0.45903420812226
  H   3.21891153737757      2.21819302091423     -2.18308983986287
