27
Coordinates from ORCA-job 16640optt
  Br  1.22435317236984      0.13239450050874      0.91160860017029
  C   3.03209204811558      0.11561621897810      0.41970591515205
  C   3.71610385146711      1.24410438498153      0.21229042036262
  O   3.20719760549377      2.50207537697704      0.31919589417780
  C   4.14392007615188      3.39057915164060     -0.30151796134926
  C   5.51784478573202      2.73221533102401     -0.10413108722921
  C   6.12036557955989      3.15557522376823      1.25812886434604
  C   6.85737491965654      4.43764270558385      0.90597351716730
  C   8.22163279453063      4.32029348519977      0.35125280549859
  N   7.08570790533458      4.48393772589437     -0.54605336953966
  C   6.56580007084173      3.22162344183076     -1.10293996547784
  C   5.12160345932561      1.27848676141689     -0.12521988720999
  C   5.88103981753620      0.19999997007978     -0.35242066769715
  C   5.39528640545472     -1.17560159011554     -0.28281095923257
  N   6.04915085906908     -2.23011064298241     -0.55414501587141
  S   3.73280507530583     -1.47135301858352      0.27731028835747
  H   4.05150984295557      4.36581430802966      0.17216880904398
  H   3.90246238683276      3.47431555516351     -1.36524312058773
  H   6.79755204250316      2.38401921156511      1.62776525802616
  H   5.34291890218008      3.30562892491717      2.00706250820650
  H   6.53922984331441      5.36593167328813      1.36335354906373
  H   8.69041646713082      3.34175575061822      0.39682948072792
  H   8.90344627074724      5.16000408052493      0.38873748577167
  H   7.36493374317995      2.48421324058965     -1.22211172474217
  H   6.13367293551292      3.40561504702244     -2.08676930059930
  H   6.93059198810913      0.30937282805928     -0.60778597970130
  H   7.00198715158872     -2.00814964598038     -0.83723435683455
