28
Coordinates from ORCA-job 16648optt
  Br  9.99483398920484      3.22394103312754      1.11906128110506
  C   8.38126537262972      2.31361412740194      0.92477745057752
  C   8.04257670161532      1.21714199429322      1.62691343238471
  O   8.87323761067802      0.80370066653476      2.60599971575102
  C   9.47191479898352     -0.51112172299782      2.67561112321603
  C   8.99710706911299     -1.31416189955037      3.90748487484395
  C   8.36065401658463     -0.36990199084824      4.94431657031743
  C   6.94018403517074     -0.12934971020931      4.36518231071432
  C   6.88255820495033     -1.10276944983768      3.21318025691613
  C   7.79358788492565     -2.23937097612957      3.56074712802327
  C   6.63255514251685     -0.80383633779724      1.94126283353540
  C   6.70853234717353      0.58061609950738      1.43963583270686
  N   5.72315909680823      1.15090068356650      0.85114977887842
  N   5.90671752724811      2.40220433066466      0.35762705103378
  S   7.33191543726509      2.86040518531588     -0.36397749307344
  O   7.61161497381215      2.07118447953632     -1.52015608054879
  O   7.29433546383370      4.28083404424643     -0.47381141491159
  H   10.54098765108492     -0.31398120193128      2.75168495788782
  H   9.28202950236528     -1.05225847162623      1.74705420382785
  H   9.84439002423039     -1.87279070403260      4.30663170889940
  H   8.91859956274217      0.55576027936134      5.06635838882949
  H   8.31281934519138     -0.87085258974560      5.91098550657517
  H   6.77504448858296      0.89985219468920      4.05120432851264
  H   6.16534648332756     -0.37839820547086      5.09332664853973
  H   7.98458609198849     -2.91488561467145      2.72844450450893
  H   7.50625092454036     -2.80918266031482      4.44665603055488
  H   6.71383092456419     -1.57769172196032      1.18381001626607
  H   5.08236532886877      2.78339813887823     -0.09116094587211
