20
Coordinates from ORCA-job 16643optt
  Br  1.13581961996445     -0.05432028172713      0.09802074753895
  C   2.98995770929282      0.07014361672801      0.09624867621404
  C   3.69936166677402      1.19795457025388      0.09650826594407
  O   3.33419080069336      2.50607585583767      0.09785208916937
  C   4.52777476100158      3.32666493206734      0.09776817224896
  C   5.68013685155176      2.34916705656365      0.09689605424439
  C   7.05108036228048      2.44582070405010      0.09711267690948
  C   7.80273069440967      1.25757561542758      0.09627165782786
  Br  9.67774121791134      1.42361129602591      0.09708732978578
  C   7.21440892290790     -0.01265074633458      0.09503069851408
  C   8.04109926535474     -1.18400083245376      0.09414677772237
  N   8.75807278760733     -2.07814309496916      0.09336596668037
  C   5.81056810746407     -0.09629443738725      0.09484925917273
  C   5.11397646303878      1.08461702412109      0.09585034577958
  C   5.00180816003456     -1.33302863081934      0.09378867872350
  O   5.41941167108681     -2.44521127986153      0.09232430479742
  O   3.62958610022404     -1.13717155696963      0.09481519072398
  H   4.51008438944639      3.95763942282330      0.98756857763455
  H   4.50952176002728      3.95832787040665     -0.79155085998218
  H   7.57266868892859      3.39322289621719      0.09804539035070
