27
Coordinates from ORCA-job 16646optt
  Br  1.03241190403600      0.25796380236827     -0.83744665196394
  C   2.87045368751423      0.06259838739626     -0.59428911528334
  C   3.48529813978883     -1.14451583974344     -0.59312258334012
  O   2.83448492941871     -2.31454318625654     -0.76685150587755
  C   2.03126438364590     -2.78358160627784      0.32520269595197
  C   2.84191557058116     -3.73350522729411      1.18387454428381
  C   4.18558275224752     -3.16067815346600      1.65610825551478
  C   5.16625700977793     -3.59920791778677      0.55925538763875
  C   5.62691421132067     -2.54037100399169     -0.48182247447268
  C   4.91950056732566     -1.21729419290538     -0.44557527543099
  N   5.63189247028692     -0.15121429923643     -0.28870166722905
  N   5.00502622492073      1.02242497092692     -0.28048501888939
  C   3.65334644937756      1.28368449551847     -0.42552385121749
  O   3.22649370537227      2.41543642930630     -0.40561853234261
  C   4.43623909177429     -4.77050224525618     -0.09136777864844
  N   4.83637127216999     -5.59346328644614     -0.95044055513995
  O   3.18443156937652     -4.88137945553024      0.41598958258236
  H   1.18628202581808     -3.30342167698634     -0.12195559735105
  H   1.66719447004119     -1.94229616142793      0.91855892200373
  H   2.21778755943241     -4.06892334696958      2.01332535286589
  H   4.45817956033854     -3.62722067992575      2.60110205052083
  H   4.14840959108343     -2.08419725125940      1.81959633894498
  H   6.06747895472915     -4.00851551793221      1.01410568130555
  H   5.51458734516711     -2.97049269329825     -1.48016794705211
  H   6.68270933606253     -2.31822035571954     -0.34086790523946
  H   5.60036556912025      1.83027059596720     -0.16117169384933
  H   5.80312164927240     -5.40683458377364     -1.20371065828515
