24
Coordinates from ORCA-job 16642optt
  Br  0.98487646710807     -0.46707107554598     -0.11792253239857
  C   2.83290142763304     -0.25377482720612      0.14101963593752
  C   3.65540179590138     -1.31205255437105      0.18671669420280
  O   3.20610071553291     -2.58530135123344     -0.01841110278130
  C   4.01703611375451     -3.25651604161287     -0.98759746872973
  C   5.41501533872679     -3.44384515903218     -0.41431543810977
  C   6.70164083503191     -3.03321582923755     -1.16912166282356
  C   7.14295397023847     -2.44297807511217      0.18780411067284
  C   7.86917692173352     -1.13745413042798      0.39982613810393
  O   7.12777410540648      0.01091058664329      0.03048613979917
  C   5.77911486328740     -0.03196267074249      0.18697929996057
  C   5.16342813901773      1.28531242737810      0.13008467725271
  O   5.76585211040294      2.32406800903997      0.04762960335261
  S   3.37540118001358      1.38195527945562      0.25535558008850
  C   5.08667194627693     -1.19032855305438      0.35831588442191
  N   5.72612042576518     -2.40337717880365      0.61601855114551
  H   4.03693853029802     -2.66339156437328     -1.90710151745826
  H   3.52827072612310     -4.20659148160484     -1.18681575029386
  H   5.52061731452636     -4.42136992077567      0.05761572424904
  H   6.49326018441845     -2.24776599383128     -1.89797460362222
  H   7.31845307622718     -3.81186117376398     -1.61212484285286
  H   7.65175866841635     -3.21048250079818      0.77644695847864
  H   8.79283315589939     -1.10698613811963     -0.17695831493759
  H   8.11840198826026     -1.05592008287025      1.46204423634199
