25
Coordinates from ORCA-job 16655optt
  Br  1.06233783092190      0.05600216727110      0.36316208131851
  C   2.91564082633865      0.00323125405502      0.11901314467173
  C   3.64657976659263      1.14323824099019      0.12185001761691
  O   3.03571196741415      2.32415755914121      0.37499516474439
  C   3.57563852690282      3.47635508276821     -0.24433016738749
  C   5.06515713854657      3.54097983603157     -0.10301113690887
  C   5.79731751772307      2.40055631265955     -0.02425591202911
  C   7.21675483688964      2.53939137573213      0.07489305199133
  C   7.81356916173649      3.75192867313146      0.06188195047598
  C   7.04294911442123      4.97899970675970     -0.03829522194557
  O   7.48475663720758      6.10985770604683     -0.05921256281287
  N   5.66472165482139      4.75931584426176     -0.10127151972411
  C   5.08002244546191      1.12715906634145     -0.06574731139579
  C   5.65281948706815     -0.07974842232295     -0.25894277046505
  N   4.91740221285975     -1.22528324270601     -0.25656572672354
  C   3.53403835066513     -1.30530064512292     -0.06611608841482
  N   2.86604699886906     -2.39091914539674     -0.06192446247592
  H   3.09785429197071      4.32549603770927      0.24395543275240
  H   3.29812551486407      3.48697039588821     -1.30544745647371
  H   7.83044475021647      1.65096295532263      0.16750442089377
  H   8.88480667060771      3.86836391834076      0.13886637944875
  H   5.10755452702677      5.60246210793105     -0.15079183406003
  H   6.71319440062447     -0.20666129834882     -0.42318003426150
  H   5.39490701436554     -2.09999728009686     -0.40445024328220
  H   3.45364835588406     -3.20751820638781     -0.21157919555319
