27
Coordinates from ORCA-job 16651optt
  Br  0.95817357602504      0.54031516697970     -0.50524528719940
  C   2.80550833394838      0.26141659216108     -0.43331326801606
  C   3.32409781797607     -0.97977206868074     -0.51148211504864
  O   2.57553305518524     -2.08584179969185     -0.69593558504830
  C   1.98897936389527     -2.68324126629604      0.46416275316401
  C   2.97811570275885     -3.57712370081177      1.19751091989020
  C   4.26087363202965     -2.89165736038694      1.68416481690560
  C   5.33641253753969     -3.21443585436075      0.63553506287851
  C   5.00221571635224     -4.63196987001204      0.19944088059195
  C   3.48228965138786     -4.69026121720370      0.26658155834741
  O   2.77474808991042     -5.46974907497383     -0.30104865320426
  O   5.27432710999454     -2.41121584384528     -0.55949404965901
  C   4.76651895457591     -1.15487468747124     -0.46470404390236
  C   5.53745389830897     -0.06807767459672     -0.38901083904720
  O   5.02758865552821      1.18069621749932     -0.33832203955392
  C   3.66846935010062      1.43730100027382     -0.31689852935099
  N   3.23939431399061      2.61597140239687     -0.21575718067622
  H   1.16044023097711     -3.28249566928955      0.09103699914566
  H   1.60196730525834     -1.90165706395452      1.12265157936303
  H   2.43045519496983     -4.04995754700733      2.01611135106589
  H   4.59130260503423     -3.34171904305208      2.62160028734018
  H   4.14926095756992     -1.82356357711449      1.86941723775842
  H   6.34019667615859     -3.10832042453704      1.05011201576092
  H   5.39636347353969     -5.35865372769943      0.91612426527584
  H   5.37266490902990     -4.87994608948800     -0.79244059778341
  H   6.61706308329854     -0.08799952343220     -0.37523429347538
  H   4.00658580465623      3.28183270459477     -0.15856324552247
