26
Coordinates from ORCA-job 16669optt
  Br  6.41191431842167     -6.81136671051889      4.10733378929086
  C   6.18275459274747     -6.84811026203477      2.23995620519368
  C   5.72037475435441     -5.71621500544980      1.59224273417823
  O   5.38436833983682     -4.60181511834629      2.30471632811397
  C   6.16299541695584     -3.45872299554136      1.99780053629300
  C   5.48265065218272     -2.65037958653588      0.88347564298893
  C   4.38637514692359     -1.67790734182427      1.34354956422654
  C   3.47796334955776     -1.62287736415096      0.10837758180005
  N   3.59640121075948     -2.94142555082997     -0.51393689766664
  C   4.64571003961925     -3.50051698056436     -0.08599396983381
  N   5.09733222005390     -4.71657852727992     -0.55910052594319
  C   5.57449572131371     -5.78208267902635      0.19520301764207
  N   5.84250979745973     -6.87884485177570     -0.49724682015341
  C   6.27311393408255     -7.95502445405925      0.15145758814956
  C   6.46785229969660     -7.99948648429793      1.51947880534826
  C   6.50538652740074     -1.93303633006138      0.10889208737551
  N   7.31043856359740     -1.36118276284618     -0.47316318168780
  H   7.17063810479218     -3.75995396104624      1.70518584351408
  H   6.22469059724095     -2.85896677712972      2.90545015768942
  H   4.77930814691410     -0.71404950040255      1.66020522223684
  H   3.85836260054321     -2.14724065381441      2.17592601837267
  H   3.81247602982342     -0.86007602763620     -0.60068586085355
  H   2.43667890760633     -1.41876129533074      0.35030984931004
  H   4.68496315011443     -5.00996040354074     -1.43553026338784
  H   6.47369529253451     -8.82932063957567     -0.45631688577090
  H   6.82655028546714     -8.89109773638040      2.01141343357344
