26
Coordinates from ORCA-job 16666optt
  Br  6.33809074867446     -1.78779628240306      6.38007140813387
  C   5.93798914587182     -3.15692271918671      5.16681601222981
  C   6.55604261194760     -3.24907380627378      3.98203877138221
  O   7.53037509701172     -2.42591089220307      3.52490325635945
  C   7.69436120843060     -2.67201959831730      2.12036017548938
  C   7.22439286544262     -4.12226985608528      1.86891376917193
  C   8.35458108716065     -5.13389190163242      2.11426539005065
  C   9.41005964169466     -5.17912050158856      1.02402386459389
  C   8.87881221691366     -5.79599534861373     -0.25096385919976
  O   8.02957602176061     -4.94681872240964     -1.01813935754881
  C   6.87561325182017     -4.46145151392257     -0.52231865933432
  N   6.48786925051942     -4.16271036908688      0.63438970738962
  C   6.27194471517703     -4.30483238516107      3.04794586673333
  N   5.47027327332989     -5.29504601590679      3.14104611320079
  C   4.68837777224723     -5.49575470509543      4.26595077931300
  O   3.95037707918117     -6.42238152758173      4.41784540747086
  S   4.75159360759389     -4.31419274902199      5.65238369713637
  H   8.74237913140971     -2.50910120793829      1.88091767212429
  H   7.06553580112948     -1.97992658072205      1.55947730576129
  H   7.89712044361427     -6.12149829107620      2.21971904354170
  H   8.81183216796072     -4.88918218799178      3.07784072367159
  H   10.24348241838095     -5.79691535638922      1.36610697989000
  H   9.81969497835016     -4.18850521965814      0.80946193129886
  H   8.32770843398712     -6.71326190289581     -0.01984347195981
  H   9.69102318106201     -6.04274996217372     -0.93162840005840
  H   6.18889384932827     -4.28067039666470     -1.34658412684179
