26
Coordinates from ORCA-job 16667optt
  Br  1.64722664300121      0.26668145574607     -1.36478620770135
  C   3.36508207041523     -0.20954284600040     -0.83417090275850
  C   3.68907764025361     -1.43639495150196     -0.39115166906880
  O   2.75027320508932     -2.40878786067769     -0.25431025381780
  C   3.26101358507010     -3.73247596207332     -0.16066669010562
  C   4.33976371800904     -3.81486203813838      0.91031262846198
  C   4.82160020931653     -5.23006767097164      1.19224872777711
  C   5.51546361872524     -5.81559865372580     -0.03130904506007
  C   6.41873582583515     -4.86407080980831     -0.78812568194896
  O   7.22757037288792     -5.24218950195505     -1.57781042365413
  O   6.23678926589529     -3.52893400145313     -0.62960317065316
  C   5.52397986145382     -2.96649365610012      0.47882018820457
  C   5.06807194344234     -1.60016751553757      0.00768107469507
  N   5.93174899426701     -0.65340945973125     -0.01550410428988
  C   5.56262530561795      0.60700777223786     -0.46606789172618
  N   6.29115617743025      1.62632871981014     -0.52297207234608
  O   4.24932928443400      0.78113394884710     -0.90611571321773
  H   3.64676567301152     -4.03755076431769     -1.13916585657981
  H   2.40617752045468     -4.35759527248379      0.09125154718121
  H   3.93028162668768     -3.37404083343135      1.82383405096556
  H   5.51817863917010     -5.19463050472566      2.03274066068265
  H   3.99017486611991     -5.86824332193235      1.49531944623699
  H   4.78175809874036     -6.14984785620091     -0.76992639436103
  H   6.11617557939084     -6.68905169648708      0.21465340106315
  H   6.23321354840200     -2.82175494693231      1.29700276505475
  H   7.22176672687885      1.38455822754463     -0.19517841303395
