23
Coordinates from ORCA-job 16676optt
  Br  1.08619660503635     -0.08869854089958      0.55352089289319
  C   2.92642310011674     -0.00263151949707      0.20858367067311
  C   3.58312939867019      1.19216731139512      0.13942895735569
  O   2.95643113180389      2.33389861136523      0.36607585821249
  C   3.46138891369599      3.51330102109658     -0.28328270744624
  C   4.93652350495820      3.57039489120045     -0.11427319813519
  C   5.63421131666615      2.42548779837579     -0.01694873930837
  C   7.05039187426653      2.48060419332910      0.27032017588184
  N   7.65844211414417      3.60747666120911      0.38136870141288
  N   6.96128214591141      4.73348403080484      0.21069614395378
  C   5.60213542738809      4.85518991138429     -0.02296986529974
  N   4.94544186014340      5.94180128498373     -0.16401904793706
  N   4.93138210735798      1.19840061413507     -0.11647990251083
  C   5.61662312682719     -0.01073310903113     -0.51661001165555
  O   6.71766064146809      0.07844885719131     -0.99189242256247
  N   4.94785261670150     -1.18681238057165     -0.30972416047741
  C   3.69530120713554     -1.16930741361385      0.02387170088131
  H   2.98412562245156      4.35924576904761      0.20225209314384
  H   3.16482842343162      3.49445207870777     -1.33589534649558
  H   7.64431671689055      1.59220451492153      0.39944579916287
  H   7.51390908996773      5.57205280381749      0.30244030205893
  H   5.52823218659177      6.77116166662935     -0.07968687243416
  H   3.20777086837529     -2.13158905598113      0.15777797863267
