31
Coordinates from ORCA-job 16681optt
  Br  0.92616433933314      0.33365417348335      0.00127415405671
  C   2.78500029666938      0.15119805459471      0.09877938103087
  C   3.59495006348551      1.24589329325620      0.23273232005061
  O   3.02244856497866      2.45808513126397      0.27854480695033
  C   3.83539213452117      3.57561487497287      0.62727530510288
  C   5.17738158006645      3.57737831178977     -0.08972318869042
  C   4.96401399126054      3.57715135278612     -1.61155786600806
  C   6.25563006679885      3.86493670848640     -2.36167112016843
  O   6.84538135597612      5.07669861334928     -1.93787294365800
  C   7.17581596485637      5.04669792197745     -0.56698335201656
  C   5.93517183039457      4.85244071432880      0.29435345126440
  C   5.91215729318707      2.31961492605580      0.39054793929519
  C   5.02382527230371      1.10710239722150      0.27238609448914
  C   5.51879396974107     -0.14790915080944      0.17769616042204
  N   4.71039073114607     -1.22939811140337      0.07202136637725
  C   3.31515007649777     -1.19346137769753      0.02482322986535
  O   2.68297366299442     -2.22543814607342     -0.06927177371292
  H   3.98787115855512      3.57818635488730      1.71264520749066
  H   3.24232444955955      4.44820810977449      0.35586063085687
  H   4.23685417462514      4.35477506288065     -1.86219603970254
  H   4.54770140849020      2.62418683438100     -1.94709571441962
  H   6.06366933574626      3.97107428218458     -3.42829995435733
  H   6.97455311892011      3.04374796237266     -2.23125344740155
  H   7.65549629610606      5.99833212103372     -0.34228332896595
  H   7.90801609770718      4.24846959440854     -0.37964916923556
  H   5.28024485786145      5.71599570056877      0.14458450462096
  H   6.21476075048087      4.82731501445118      1.35152769060334
  H   6.20264373522161      2.47406032686129      1.43517584165292
  H   6.83290579557791      2.15170851511822     -0.17004730283961
  H   6.58279943910488     -0.34564349801137      0.17924020322708
  H   5.10051818783273     -2.15867606849350      0.01043691381995
