25
Coordinates from ORCA-job 16686optt
  Br  1.08766522571160     -0.50419344788392     -0.13323040831212
  C   2.94416920477684     -0.29884256059387     -0.03234934398778
  C   3.71413261341385     -1.24065430989772      0.56011667600646
  O   3.16323912526190     -2.32075912485008      1.17754682334017
  C   3.22175305903142     -3.52882919248201      0.43931527343613
  C   4.62155000759851     -4.04397765611045      0.29344276213376
  C   5.75942617607905     -3.43650326885787      0.65104966244118
  N   5.95631514716722     -2.14192078808588      1.17050105931905
  C   5.15175719802198     -1.11985015031830      0.59953507476898
  C   5.69954515302061     -0.02176002721750      0.04745267998679
  N   4.91927770223445      0.94558344200423     -0.50961178288292
  C   3.52457710440738      0.90998099159161     -0.61633543293905
  N   2.81406506321708      1.81699511486969     -1.15886485477712
  S   7.16028943107568     -4.43617119727697      0.24430628114731
  C   6.11844127912107     -5.72387993975779     -0.40015949165556
  N   6.41552707581782     -6.85982846102538     -0.87350604490994
  N   4.81621128851117     -5.27744298024299     -0.30074698265270
  H   2.76115060586082     -3.38500409923155     -0.54567757388681
  H   2.61631694701096     -4.24638878827268      0.99567310160265
  H   5.96325473375549     -2.12440852613737      2.18338799144288
  H   6.76849556221869      0.13343316571118      0.02532101186246
  H   5.37104537172882      1.75480191569077     -0.90510823471523
  H   3.37260027054707      2.58808172208262     -1.51637316023245
  H   7.41384245229256     -7.03261457900759     -0.88672068935631
  H   4.07335220211790     -5.88884725470016     -0.60196439717983
