25
Coordinates from ORCA-job 16683optt
  Br  1.40623874349050      0.62570107397373     -1.67900467535234
  C   3.15563864661146      0.08151787428779     -1.19731802714757
  C   3.30731676540311     -1.09588111300469     -0.45262136529947
  O   2.18797579789115     -1.77829858563902     -0.09540504173470
  C   2.11549178311451     -2.20858343051554      1.23869601890515
  C   2.91494491593402     -3.52800628682482      1.51366050175572
  C   3.83197816529063     -3.32076560684517      2.73347409404257
  C   5.01494257391129     -2.59593261027403      2.09463661688115
  O   5.87832991721068     -1.99291332269885      2.65464439809259
  C   4.89884093604044     -2.80078627684680      0.56484765623948
  N   3.82166513971288     -3.76574449011823      0.38283747512975
  C   4.60543606238376     -1.49748961724829     -0.14592506759038
  C   5.65690186127319     -0.67597338117217     -0.54062480183671
  C   5.38627845571143      0.47573195047892     -1.25224101412754
  N   4.14871944188958      0.83766148866937     -1.58793946856861
  C   2.01838317462018     -4.67291521704281      1.68021823808858
  N   1.33581027865275     -5.57849514715329      1.83993054124563
  H   1.06051549337092     -2.35951470598880      1.45739534635017
  H   2.49706847348450     -1.41918427817536      1.89387665048484
  H   4.17871481012672     -4.28059344465589      3.12373254526742
  H   3.40112381037926     -2.74664284178683      3.55129356153412
  H   5.84508991473499     -3.19134476169977      0.19192996918641
  H   4.17074423129130     -4.71681467072792      0.40937381961646
  H   6.67707919378964     -0.94939555071251     -0.30399954276089
  H   6.18377141368107      1.13266295172099     -1.57646842840182
