24
Coordinates from ORCA-job 16680optt
  Br  0.99581628876975     -0.01274442679236      0.15872229709610
  C   2.84623280163473     -0.14471872293668      0.03340067546025
  C   3.50784025118737     -1.29404216272686      0.13473598913832
  O   2.88810559785914     -2.46287736096779      0.38123940142024
  C   3.48094660683077     -3.57514875153691     -0.27975301861109
  C   4.86145762621462     -3.78788545119153      0.31917562205124
  C   5.71268564503113     -2.53256152279278      0.17160582966718
  C   6.55840494960855     -2.83079097452077     -1.08401014345168
  O   6.58250755710319     -4.25371606685431     -1.20523981962833
  C   5.62006465352745     -4.84108969548664     -0.47142464998333
  O   5.40455612778524     -6.01060280965753     -0.48500659047994
  N   4.91650514393960     -1.30855694228870      0.03880685266779
  C   5.61698321804682     -0.15235313681494     -0.13126289689057
  O   6.82455218368015     -0.12969518370822     -0.20303878637216
  C   4.81876854645753      1.13326845601903     -0.22776977023096
  N   5.35121010204283      2.25121974758625     -0.39228989776340
  O   3.46498115954549      1.05641302998937     -0.12621398641307
  H   3.52851462182257     -3.38517094918438     -1.35779693310840
  H   2.83640455522560     -4.42973657583083     -0.09631347180203
  H   4.75134217635940     -4.11366622902329      1.35118054779953
  H   6.37559479030680     -2.40183926825480      1.02695652775931
  H   7.57869394590192     -2.47475138071890     -0.99578699912079
  H   6.10164737654793     -2.40275552426305     -1.97882400078991
  H   6.36218407457136      2.12980190195662     -0.44509277841431
