30
Coordinates from ORCA-job 16689optt
  Br  1.81084902638316     -0.89091297905386      0.39461150097225
  C   3.10558449108992      0.35957329677532     -0.12014689823893
  C   3.01667286765431      1.66974680068793      0.17389445868653
  O   2.02708300501637      2.20144734104660      0.92158325199813
  C   0.69898227924667      2.23523790098654      0.39478629381854
  C   0.31408701715139      3.65458036820841      0.03232355012594
  C   0.36070859756766      4.62157672748405      1.21957350991895
  N   1.75132755774595      5.04924937425343      1.25829130198002
  C   2.23359409879585      5.17821650871209     -0.10937225442893
  C   1.33172031670601      4.25142996222840     -0.95258253236059
  C   3.73133731171400      4.95146783608221     -0.25209513783130
  N   4.37241573845803      3.74597179114190      0.30177272534789
  C   4.21618506722125      2.44654720275022     -0.14224130372746
  N   5.25275490175413      1.89260107732980     -0.68921975424122
  C   5.26442468019803      0.56505683197736     -1.04316793486456
  N   6.18811019328769     -0.06285913567312     -1.62109178854390
  O   4.12672442139978     -0.19821715134350     -0.75973064680049
  H   0.04355320423325      1.82593501007484      1.16536825989038
  H   0.63242118248372      1.59522685069273     -0.48805524298182
  H   -0.69006853651903      3.61858068659826     -0.39422562430996
  H   0.07929949167508      4.13794044765114      2.15737371165537
  H   -0.33910218367522      5.45036088116074      1.04080314210476
  H   1.89406498793667      5.88703006518038      1.80492008918601
  H   2.09456486466095      6.20185577533306     -0.48875541556690
  H   1.90530230372584      3.47097441069381     -1.45673451271842
  H   0.83188857991065      4.82686561547286     -1.73013688326169
  H   4.23564471300541      5.77555928196163      0.25514401730912
  H   3.97274045209151      5.04143457575102     -1.31958978001244
  H   5.37231779197419      3.91180208605906      0.27222565710237
  H   6.95981157710673      0.57572055977662     -1.78852576020764
