23
Coordinates from ORCA-job 16695optt
  Br  1.13205050512737     -0.05383552102612     -0.11139334683745
  C   3.00059459944507      0.06539535228729     -0.09333743340185
  C   3.64349452019618      1.25519247169498     -0.08825676297651
  O   2.95209637546471      2.41310580990655     -0.09168597424208
  C   3.60352020774739      3.62552080231244     -0.09165212502096
  C   4.92726291016884      3.68761495450011     -0.08703416394023
  C   5.87122240181801      4.84217493793979     -0.08783396948957
  N   5.65887471323205      6.09675210738567     -0.09080486464426
  C   7.20778662111090      4.23228348429615     -0.08440956741998
  C   7.11390039780773      2.87759693139448     -0.08087859550605
  C   8.19743103451981      1.95389495303233     -0.07789352510060
  C   9.08040271999482      1.14086753107309     -0.07574030047619
  C   5.72253020111597      2.46995180293202     -0.08194027466961
  C   5.09052965045773      1.26696841717863     -0.08094016714744
  N   5.68717999127223      0.03331608361741     -0.07507082613277
  N   5.06231150802874     -1.16202734209150     -0.07762471304658
  C   3.78095672745669     -1.14754973501998     -0.08654870310074
  H   2.90290670485203      4.44592860287553     -0.09579492716674
  H   4.66152697342079      6.30843702072127     -0.09269292449239
  H   8.11817868162594      4.81056140817842     -0.08504231294070
  H   9.88190825573328      0.44052114900652     -0.07408079846911
  H   6.69429560188219     -0.01949556625648     -0.06989903371545
  H   3.28203869752145     -2.10717565593865     -0.08844469006275
