26
Coordinates from ORCA-job 16704optt
  Br  1.30696000418361      0.01194989840552     -0.85453809135726
  C   3.08634976980420     -0.15712428945216     -0.29400332834551
  C   3.72444229451742     -1.34879519985535     -0.26737452231040
  O   3.07423759375947     -2.50229171203281     -0.60030136122064
  C   3.57974462381278     -3.16293647123173     -1.75369184427820
  C   4.76990169803446     -4.06368321395171     -1.45760975967819
  C   4.48339227463835     -5.20488833684140     -0.48787319978430
  N   4.54162299958131     -4.74561463513096      0.88613931222816
  C   5.08289669985662     -3.58563967121188      1.31087257671054
  O   5.05715041971717     -3.21501852051296      2.46307990884981
  C   5.77259690432763     -2.72000559953905      0.25161220008410
  O   5.90073885529546     -3.33450754210000     -1.01869276101604
  C   5.08300927229740     -1.37407207653249      0.18606932287451
  C   5.70849522494069     -0.23910527577369      0.57227606068454
  C   5.03958139719597      1.04942649025432      0.55506828187157
  O   5.51291191994029      2.11751039486681      0.88344578287636
  N   3.71699413548817      0.97975098594968      0.10410356306294
  H   3.86647809938559     -2.42257304768474     -2.50577683143902
  H   2.75709277403206     -3.76343519591781     -2.14431882332089
  H   5.06923235033042     -4.50357700342324     -2.41147134872812
  H   5.21848819538659     -5.99734894552137     -0.64927951928541
  H   3.49177916163471     -5.61608518151893     -0.68772122502652
  H   4.11176088414948     -5.30070111656505      1.61113504089484
  H   6.78932791316634     -2.56749814718565      0.61261694940542
  H   6.72919060688345     -0.24546218494646      0.92782163755908
  H   3.21962392764026      1.85972559745316      0.08741197868864
