24
Coordinates from ORCA-job 16703optt
  Br  1.11704839731449     -0.07826664118779     -1.20732289103490
  C   2.88173555065883     -0.08071951266021     -0.61860158127869
  C   3.65245156371037     -1.16829870500029     -0.51216492667019
  O   3.34095821896093     -2.46445607176684     -0.77338438967714
  C   4.34893465490250     -3.27322319758342     -0.14684323900815
  C   5.59931024732097     -2.38426330679827      0.00972598281340
  C   6.33772909190059     -2.58338293914495      1.33024614477946
  N   7.57174720654833     -1.81002119286770      1.38324555445445
  C   8.73994146448200     -2.47911013009098      1.72288473091346
  O   8.80296371866042     -3.65461207757175      1.95157941403424
  C   7.65797905860399     -0.43979411188108      1.15156145694798
  N   6.80732063976415      0.40783462795373      0.74736228956788
  C   5.51422991287117      0.16122280011654      0.32187214605846
  C   4.99129451017011     -1.02244245634060     -0.05695754624180
  C   4.65208661613772      1.35641525125963      0.21413903487647
  O   4.93541357188621      2.46816962148937      0.52179437913072
  O   3.37250851288244      1.12967922228084     -0.29738103562380
  H   4.51138589702027     -4.14521682555500     -0.77412309179481
  H   3.98067581308580     -3.59374042040683      0.83258948935172
  H   6.29459836474467     -2.53842771900073     -0.81948235252960
  H   6.62479435931121     -3.62358577438208      1.47413136762131
  H   5.68722294365623     -2.28775825323633      2.15584562355242
  H   9.61499526941902     -1.81541788663903      1.75529828359131
  H   8.65367441598750     -0.06158430098620      1.37398515616579
