23
Coordinates from ORCA-job 16719optt
  Br  1.18068354322371      0.14801128698921      0.01185514216021
  C   3.06193026602522      0.12681870507889     -0.02126652092215
  C   3.77485771030649      1.25822027564017     -0.21712529645647
  O   3.09106886649269      2.44527402650628     -0.37091320831658
  C   3.72873736327992      3.59349066090347     -0.33337367028059
  C   5.06556403458943      3.69460529274090     -0.16334298099998
  C   5.71876311007999      5.00455597681436     -0.05743795409645
  O   5.13934125510005      6.06402801175664     -0.13945439300824
  C   7.17093041100282      4.90988170655117      0.19781103953813
  N   7.81529858024508      3.80754379111542      0.29086282076774
  N   7.17932757859360      2.63890325147577      0.10007448011999
  C   5.84250970449490      2.48356844734342     -0.10569953493127
  C   5.21633641399655      1.26026351223201     -0.23336737026588
  C   5.91908862607492     -0.03723386438094     -0.26699255328657
  N   7.13901116139883     -0.23704592081794     -0.63629676740349
  C   5.11081859298569     -1.17507561294551      0.13763930189189
  C   3.76706273081808     -1.09648900448185      0.21380792565708
  H   3.08384948881394      4.45578512630007     -0.44122169129754
  H   7.73165493151378      5.82505795120222      0.33828617388322
  H   7.75146149387167      1.82675070695545      0.28247149903774
  H   7.55010849215589      0.58105309583641     -1.07671485933060
  H   5.62942285701998     -2.11262739449765      0.28181680074986
  H   3.18117278791670     -1.97634002831799      0.44558161678994
