23
Coordinates from ORCA-job 16718optt
  Br  1.28337572492214     -0.25858149062849     -0.63646255388923
  C   3.12591301939930     -0.34721485884246     -0.35500715951130
  C   3.72197930624323     -1.42918865477016      0.17469764742184
  O   2.99978452386336     -2.48357092591817      0.64179264429065
  C   3.08421235869164     -3.67512800005969     -0.12611440759759
  C   4.46218374881538     -4.22326908362057     -0.02510596072598
  C   5.56023227016989     -3.62939090472364      0.42708583545353
  O   6.64402624277696     -4.45725705417546      0.34880902915427
  C   6.20520097763184     -5.66745849269303     -0.15372204148485
  N   6.88012350997341     -6.71792042266637     -0.29000373987314
  N   4.87628017007637     -5.48872863882720     -0.47150852196587
  O   5.84523067393328     -2.39601788837316      0.88750749986612
  C   5.15864086541434     -1.34164588200589      0.35440270293211
  C   5.82544402357886     -0.21792222117733      0.05452270847687
  C   5.13347698015503      0.93619418987937     -0.48674660922045
  N   5.57957333251337      2.06363337657371     -0.82123126656679
  O   3.76507694916358      0.76769072142715     -0.69605316175481
  H   2.80140477824274     -3.47344573899719     -1.16535583603641
  H   2.35458236544550     -4.36335145467282      0.30284451514150
  H   7.83794784150390     -6.59253470664426      0.01793212658801
  H   4.27848345142695     -6.28669036550326     -0.60301497624464
  H   6.89414326573116     -0.16023192165458      0.19840074596174
  H   6.57868362032773      2.12103041807353     -0.65166922041559
