26
Coordinates from ORCA-job 16711optt
  Br  1.09606655606702     -0.46452018064803      0.44840788039582
  C   2.91349343296169     -0.35674574071191     -0.04620663058434
  C   3.76743608294705     -1.40445854258793      0.29196299524598
  O   3.31158928445593     -2.45585321883528      1.02150790090987
  C   3.07463706125434     -3.64747961823055      0.27270280960841
  C   4.36173491922917     -4.28240749207163     -0.13688291928091
  C   5.58320745586301     -3.69821656549968     -0.08975257366880
  O   6.54921544203719     -4.56083064673307     -0.47275929606767
  C   5.93227318407350     -5.73676117831709     -0.76589662954137
  C   4.59952065736649     -5.62187525198095     -0.59517226798237
  N   5.98582601888467     -2.40294516669541      0.22356851136721
  C   7.14692478405404     -2.20176131950376      0.97837684407213
  N   7.58853338723669     -1.12877852519970      1.47182499572337
  C   5.10895836298172     -1.33226001031445     -0.09255974188108
  C   5.57802925936414     -0.22104251855947     -0.78306232821730
  C   4.71830975131786      0.82210494557627     -1.08681072014337
  C   3.38158392063215      0.75743087486424     -0.72281480202932
  H   2.44241871968852     -3.41010836433578     -0.58974077748581
  H   2.51105750589591     -4.30505424554586      0.93373521934995
  H   6.57618647967205     -6.54428563991228     -1.06424431075711
  H   3.86674654115491     -6.39545822508324     -0.75413330828218
  H   7.69818948163982     -3.12784920334801      1.11846608634740
  H   6.98029494169031     -0.33089657684743      1.29297464739048
  H   6.61794294090103     -0.19115834679319     -1.08131525737207
  H   5.08612735546439      1.68659915738798     -1.62247696476249
  H   2.69969647316632      1.56061159992624     -0.96469936235441
