28
Coordinates from ORCA-job 16714optt
  Br  1.35210448117967      1.22410643379486     -0.51686747499027
  C   3.12457525193954      0.63557886436425     -0.55482058325606
  C   3.42510657392547     -0.67668598391367     -0.70650618984150
  O   2.48250560080409     -1.61568040639061     -0.89487775127150
  C   1.85003480034357     -2.23613904509789      0.26520892805573
  C   2.88648931102226     -3.21503915735222      0.75874741072712
  C   2.73960036113854     -4.48885999520660      1.56902993254978
  O   4.07911579313814     -4.96447409033234      1.76589037686898
  C   5.08835185478722     -4.51612938160101      0.87514644980654
  C   5.18177905319854     -2.95278112055253      0.79193945729099
  C   5.24961409336898     -2.42700799798428     -0.67893316121817
  N   4.75686561743068     -1.04585368743677     -0.76251512311002
  N   5.74610732648887     -0.13421985167675     -0.66696658383830
  N   5.51581892726350      1.08383201380771     -0.53584296708524
  C   4.18861895216648      1.61523443860864     -0.44282881289412
  O   4.03299576114318      2.79648586529292     -0.28794449717961
  N   3.96976062126110     -2.49975002120293      1.42227132696172
  H   0.94989407355249     -2.70107461086997     -0.12821192837180
  H   1.58269592845454     -1.46474787793996      0.99015678269636
  H   3.23386565363837     -3.60574857189817     -0.20131830007176
  H   2.15059650282553     -5.24361322357791      1.03781328013958
  H   2.32398848856253     -4.32260718106487      2.56239114670279
  H   4.93591832498664     -4.93607773213425     -0.12749001357084
  H   6.01255172772627     -4.93333312925526      1.26813540298317
  H   6.04871279769720     -2.58007000104603      1.33794774140769
  H   4.65928499689925     -3.03825770338534     -1.35811848911006
  H   6.27250258278400     -2.39410620423478     -1.04469283192964
  H   3.86854454227327     -1.49598064171420      1.45325647154843
