23
Coordinates from ORCA-job 16725optt
  Br  2.05508618619870     -0.71614249839764      1.53369571375046
  C   3.73272579128594     -0.16554963692675      0.91643786952471
  C   3.98774443289743      1.10398957120292      0.51976569662563
  O   3.18965272891065      2.16354663233422      0.42174727274828
  C   3.96975159356298      3.29981972204109     -0.05004163729026
  C   5.22724815320012      2.65371210047157     -0.55539661657928
  C   6.16848287487128      2.92297439859955     -1.44697044371085
  S   6.72659792436228      4.47359048893851     -1.96852972443816
  C   8.27300580047441      4.36352389340186     -1.00577663480177
  O   9.12618336752190      5.15800560727966     -1.27649461858896
  C   8.40814787451138      3.46923654980727      0.18406258064634
  C   8.06839855458309      2.25765132108556      0.69431107878579
  N   7.54461560311485      1.03346840158898      0.34166931321642
  C   6.35704932368536      0.58649004047628      0.28163675490485
  N   6.04652332525094     -0.74745534645124      0.42608599597613
  C   4.83062825904594     -1.06913172347530      0.74127941004619
  N   5.23532878834928      1.40930623497026      0.08088940349677
  H   4.14118668818241      3.97061518053023      0.79375322612171
  H   3.40104518645183      3.80340038446056     -0.82540263148169
  H   6.85414956943496      2.11500273505907     -1.66876393872349
  H   9.05842726251048      4.00809746109314      0.86474811266616
  H   8.48490113770347      2.14646921960759      1.69623383174908
  H   4.63011957389024     -2.12662073769743      0.89105998535593
