22
Coordinates from ORCA-job 16729optt
  Br  1.35498705227392     -0.05139446706778      0.45647296139910
  C   3.18891604911310     -0.32340773850835      0.66177537025274
  C   3.82970522903511     -1.35906571845008      0.06763294280581
  O   3.30918512275830     -2.33855724506829     -0.67719452545946
  C   4.33470444587064     -3.19295646069568     -1.01776853342025
  C   5.48793228558516     -2.75097988606453     -0.50657265427653
  N   5.17159935392759     -1.56913752803591      0.17220127932995
  C   5.97162148173209     -0.65874467026398      0.85067201710418
  O   5.30703765079582      0.15937289003234      1.70728499334979
  C   3.95235024886521      0.51166174573214      1.55961906595994
  O   3.55869284719036      1.41797165134164      2.22128273635616
  C   7.29284116886142     -0.57419191884383      0.74212310107126
  N   8.14882553728602     -1.31746583859647     -0.08564530999544
  C   8.10326922813691     -2.58866772063819     -0.60570763223723
  N   9.08987752837258     -3.18053106587500     -1.14559913907112
  C   6.80829041986825     -3.38785811092205     -0.60800323782944
  N   6.82030087198705     -4.63475238587035     -0.80188163627093
  H   4.09324954323098     -4.05326300529024     -1.61241857465369
  H   7.78143427220083      0.17482263914449      1.34627357145182
  H   9.05644279899220     -0.89060962772244     -0.18566764189656
  H   9.95166022249966     -2.64088438991497     -1.11254878515884
  H   7.78807664141671     -4.93636114842246     -0.94933036881127
