27
Coordinates from ORCA-job 16726optt
  Br  1.17756864736497     -0.02554482031686      0.36291448912867
  C   3.03431359021779      0.07541541688352      0.19393000805079
  C   3.72327125098578      1.22490651208022      0.20343576621604
  O   3.21459557784649      2.47506512088854      0.39091014316106
  C   4.26256502087584      3.39651310553872      0.10036160137356
  C   5.58498639491908      2.64904264132869      0.34997544009889
  C   6.70757458791774      3.23300941638827     -0.48902567138498
  S   8.28046139410136      2.45077326846169     -0.19626945588725
  O   8.47777999097347      2.34968339503763      1.22600015944139
  O   9.26071288190949      3.09614047852859     -1.02596160858407
  C   8.03411847737064      0.78737819081261     -0.86307563177018
  N   7.23277288964756     -0.09177484287230     -0.09185665102619
  C   5.83870759102837      0.04980151970980      0.00087974564249
  C   5.15488168303952      1.21239671984791      0.11728456672924
  C   5.09604638759044     -1.22944563055549     -0.03398191236472
  N   5.58613214913527     -2.40159772578520     -0.15311162172836
  N   3.71987903073114     -1.10595608021544      0.08782811525493
  H   4.13424010669865      4.26816754353026      0.73762120086534
  H   4.19014309949812      3.69866032395417     -0.94991377623620
  H   5.86762016678667      2.73300307093705      1.40363705524486
  H   6.87621852440539      4.28247014554215     -0.23685109514856
  H   6.51420097611508      3.16090924634055     -1.56069232779598
  H   9.05287040222539      0.40663264016554     -0.95318757451346
  H   7.62184351004685      0.92201314403430     -1.86507191916291
  H   7.68045893690216     -0.46922342889987      0.73241336584529
  H   6.59146418707548     -2.35055850739788     -0.27865360704381
  H   3.20657254459109     -1.97388086396720      0.03446119559412
