26
Coordinates from ORCA-job 16731optt
  Br  2.52789065509019      1.19055784590411     -2.60121472421647
  C   3.53300912613457      0.65820955710033     -1.11959464385597
  C   4.04431569213054     -0.59039124023496     -0.98178133077726
  O   4.13838113495840     -1.60595612044859     -1.86485525493695
  C   5.34780023261429     -2.36663945412613     -1.52477286794359
  C   5.59238128279273     -2.13644604501986     -0.00927329570100
  N   6.92659230700887     -1.74024551975056      0.49386896552119
  C   7.56244270783754     -2.70359393590665      1.40549710652487
  C   7.02620757070508     -2.37817797659262      2.80417321119246
  C   6.84588830588111     -0.87425154264173      2.75111688918515
  O   6.75909005797855     -0.10441466080970      3.66167684365995
  C   6.78553601445720     -0.47360241101233      1.26658107123900
  C   5.45622752876406      0.07585389590814      0.81974458721066
  N   4.99152221104336      1.34072542317337      0.71802609913418
  C   3.92611561187765      1.69782826917577     -0.15402229564415
  O   3.49902413339324      2.82680680984637     -0.12516688861937
  C   4.82478057298076     -0.88916461927782      0.14695797882481
  H   5.15000212721884     -3.39784957557054     -1.80218716048179
  H   6.17527799871886     -1.95965282367536     -2.10777965452969
  H   5.19376357307458     -2.98059141093587      0.56710040609790
  H   8.64462034939604     -2.56474199429332      1.37198445807993
  H   7.34991390726663     -3.72071390772057      1.08356325550090
  H   7.65769631956788     -2.67316820217134      3.63913444537596
  H   6.03385749320957     -2.81659146484336      2.95243062269114
  H   7.59701500101578      0.23103376480254      1.05937059665941
  H   5.37964808488359      2.11017733912070      1.24542157980871
