22
Coordinates from ORCA-job 16733optt
  Br  1.74977349488571     -1.95970973692611      0.64831205227546
  C   3.02122666047122     -0.65672250182280      0.23655413937368
  C   2.77407852566293      0.67025286483589      0.39455521693776
  O   1.54249418979675      0.97369758399382      0.87712422976221
  C   0.79217800758827      2.04043583067230      0.54526376433033
  C   1.19638915255392      3.24753846829885      0.13046351925150
  N   0.23523107375993      4.22743998537658     -0.15640611119614
  C   0.91458328387814      5.29981835975130     -0.41232406557444
  C   2.35231830981358      5.11213355795146     -0.29073214073055
  C   2.52942261877825      3.81226884769648      0.04118931047104
  C   3.77634653774043      3.11238795301180      0.35432634041044
  N   4.77603238745257      3.78773615664984      0.75279731954516
  C   3.81789407348396      1.63535364245206      0.12296283215941
  C   4.95677819912284      1.13393127783193     -0.39748173982414
  O   5.19459000183883     -0.15311948873484     -0.61725471055819
  C   4.28854336097867     -1.15038174079659     -0.28256442673769
  O   4.60488569050045     -2.28239272699367     -0.46454619549964
  H   -0.26148951523422      1.83518290018262      0.68055084721907
  H   0.41940926432737      6.22677441551313     -0.67168331892102
  H   3.12327226109075      5.85607930532825     -0.41627782965139
  H   5.57525527249804      3.19493467944693      0.97210167495877
  H   5.78678714901158      1.75936036628076     -0.69793070800162
