23
Coordinates from ORCA-job 16734optt
  Br  1.18350004424457     -1.68296465649025     -0.33181983542341
  C   2.68053175461904     -0.58704878564584     -0.10794824985694
  C   2.63064326919444      0.72551725772322     -0.42142616122369
  O   1.50721879749176      1.22780081323960     -1.00535906706205
  C   0.74292773392082      2.17043612820014     -0.40260474628800
  C   1.24778424419289      3.29736029877286      0.10702674678829
  N   0.46328801708404      4.29386762242391      0.69331945597753
  C   1.28479458892229      5.26014158365921      0.94736352155287
  C   2.65710872809593      4.97370100132804      0.53958362693404
  C   2.63225772702288      3.72857802638607      0.01197758601090
  C   3.74294520382700      2.95977782279333     -0.56560118552686
  N   4.73727396000845      3.40751102357772     -1.18885300018148
  N   3.72665948390635      1.54706390028525     -0.27637413876306
  N   4.90868688308184      1.05999069985422      0.14559553538748
  C   4.99630967504038     -0.17891953557899      0.45097144055088
  C   3.91652948721688     -1.16967883880270      0.38785539941440
  N   4.01356590237350     -2.39656741378089      0.71811817181820
  H   -0.31694869580861      1.95239434574122     -0.43077142202513
  H   0.94616468567436      6.17936352810296      1.40795685968402
  H   3.50970155747962      5.62650750805582      0.65145505854689
  H   4.67034980633049      4.41924023709500     -1.28398853894953
  H   5.97244915323873     -0.50272543684809      0.79645376684398
  H   4.95725799284232     -2.61334713009184      1.03506917579068
