27
Coordinates from ORCA-job 16738optt
  Br  1.00462725573866     -1.36780314005053      0.78231151923866
  C   2.13350687021869      0.01513435008758      0.19658574761150
  C   2.16893851805946      1.24224122869990      0.75774325227731
  O   1.29455862926016      1.58063212086282      1.71608072783234
  C   1.26101437762144      2.93206898042032      2.15996458722923
  C   0.93945366435613      3.88055361516659      1.04143842347823
  N   1.16340138806998      5.13078861040350      1.07670359676017
  C   0.76553793260623      5.64139659166966     -0.24655894326430
  C   0.78857823345845      4.38584238803583     -1.13830045292341
  C   2.23745260643047      4.16561673981674     -1.59014073051401
  O   2.48329841058436      2.79809407181569     -1.98564431513875
  C   3.05286713312753      1.98692578893672     -1.15181902639147
  O   3.37286563837093      0.84339743280537     -1.74744326886761
  C   3.04114051119493     -0.28917232329859     -0.93173552940378
  N   3.43759737160535     -1.41966492134596     -1.27351758565475
  C   3.25536535586208      2.14890818974211      0.23905678444419
  N   0.39915271015015      3.39925848373493     -0.14358274619477
  H   2.21486615572552      3.23321922542813      2.58913168396641
  H   0.48765391473349      2.95680613475268      2.92484490184927
  H   1.45562891735939      6.41443764623081     -0.58564736324284
  H   -0.23830743573573      6.07107974728289     -0.19550561060552
  H   0.09755970025414      4.41212547252933     -1.97810835283015
  H   2.91398162618925      4.39314509761325     -0.76677756993350
  H   2.46442288921910      4.76214043950670     -2.47146285117047
  H   4.01792687582606     -1.38288490602490     -2.10923725442310
  H   4.18973999764949      1.63031827064169      0.46941428635826
  H   0.43917075206425      2.41539466453672     -0.36179391048714
