25
Coordinates from ORCA-job 16749optt
  Br  1.00970986107767     -0.32351808870982      0.11521871627847
  C   2.87717703617752     -0.15918944630519     -0.03325315173940
  C   3.65896056325210     -1.29923536555447     -0.20520127508939
  O   3.02144347484247     -2.49658277461084     -0.24742697823340
  C   3.50360140831869     -3.49021216727601     -1.12567410934860
  C   4.49890672863430     -4.39890263752730     -0.39300150250912
  N   3.81741836547953     -4.99782224380869      0.76276509806455
  C   4.24955307832030     -4.36030043264391      1.76320755915895
  O   5.22646299241362     -3.44638374213603      1.59956420517528
  C   5.67038729111959     -3.60482314468500      0.24129296557801
  C   6.03358558736034     -2.28185389683639     -0.39625546138739
  C   5.04733914172906     -1.13973635600952     -0.27395303072491
  N   5.61382734399746      0.06408243728369     -0.22998420535902
  C   4.85477411621859      1.14185644840454     -0.09398457555525
  C   3.47563925402924      1.08444981136254      0.02407587558154
  C   4.99241851829088     -5.40735933282436     -1.33571791670238
  N   5.40299350658596     -6.14791139407453     -2.10729532822076
  H   3.96707003673061     -3.04135003550303     -2.00793073566194
  H   2.64266918575064     -4.08287042755903     -1.43064859925216
  H   3.89200268283780     -4.48016716268623      2.77741738077035
  H   6.55875556565681     -4.24025940651537      0.26380759728152
  H   6.25786974950512     -2.47438839197995     -1.45098522331150
  H   6.96086176251487     -1.91841554397351      0.04473688533502
  H   5.36940321896731      2.09506863751808     -0.06314555805223
  H   2.88316953018945      1.97882465665038      0.15137136792374
