28
Coordinates from ORCA-job 16743optt
  Br  10.30212614886665     -8.63637601930339     -2.91298738886967
  C   10.16415090544805     -6.77957722653111     -2.60935367399605
  C   8.99838504801600     -6.11536503227888     -2.97872052647972
  O   7.98892811954494     -6.79057513547344     -3.58719780957234
  C   6.88035749618464     -7.04245994144535     -2.72623462999673
  C   5.81644610821609     -5.94132586771721     -2.75945350675065
  N   4.97368223149317     -6.19401300604244     -1.56905517816742
  C   5.37133541163782     -5.37425277160014     -0.68284118604627
  N   6.23682505922902     -4.36640002296788     -1.08760510732621
  C   6.30577930933879     -4.49904901337446     -2.54676498314870
  C   7.62599717727490     -4.01162933820877     -3.15544499571855
  C   7.50692973060262     -3.98655723228801     -4.61741280405909
  C   7.38509782818747     -3.95003529302542     -5.80735915189997
  C   8.87326684729270     -4.75042964917870     -2.71566313451177
  C   9.91857252274651     -4.07701672025376     -2.09792132136483
  C   11.08345385221884     -4.74445529969594     -1.74438072596995
  C   11.20975083640496     -6.09953337847012     -2.00212827890043
  H   7.24181741657665     -7.17170679406722     -1.70244670259918
  H   6.43470297925747     -7.98202243346492     -3.04869241706601
  H   5.23761599821554     -6.01389009977389     -3.67811197470005
  H   5.03653002099870     -5.40464354055566      0.34818289660901
  H   7.07426910254835     -4.18523902086956     -0.55144506844964
  H   5.53304310902948     -3.84263908241842     -2.95979139094621
  H   7.73954621135457     -2.97297509451232     -2.82797256947522
  H   7.28782195062887     -3.92267624441680     -6.86628168361505
  H   9.82444847733704     -3.01424929494804     -1.90863165565963
  H   11.89472553049957     -4.21095467956655     -1.26801738589379
  H   12.10639457085043     -6.63795276755149     -1.72826764542584
