24
Coordinates from ORCA-job 16744optt
  Br  1.35008684634258     -1.21967088432468     -0.46221444211896
  C   2.93539341622459     -0.25823103193230     -0.25326617770538
  C   3.02279738832348      1.04690198092739     -0.58547643538748
  O   1.98856670808745      1.71049851374395     -1.16585673366771
  C   0.91805461307300      2.20660441477820     -0.33646838788898
  C   1.24320483898398      3.65831974548551      0.10611123175813
  N   2.61065136868560      3.50314984971898      0.57501792071108
  C   3.31271740775074      3.78382324892648     -0.44750058750434
  N   2.69953762517986      4.57600274420058     -1.41611678379761
  C   1.32689061799339      4.54651136989678     -1.12436089226543
  N   0.34709407574725      5.04387317854836     -1.73801120952090
  N   4.44926077119626      3.05149593773953     -0.76098846201983
  C   4.32507613984509      1.70186696658829     -0.40568603905939
  N   5.36287917843405      1.08013737632075      0.01486006702684
  N   5.23633493169004     -0.22564893900653      0.29068434238133
  C   4.09895481016082     -0.99768551384532      0.25231226973889
  O   4.10759753040387     -2.16078005627446      0.58808673552514
  H   0.81340652505470      1.57382094593973      0.54426834853598
  H   0.01785110462877      2.16991848489543     -0.94667471613658
  H   0.52357329577287      4.00477477907536      0.84305526079718
  H   3.03358454936840      4.57998816339653     -2.36742348523602
  H   0.62399123480842      5.56463731431147     -2.56832281917577
  H   5.37897936883722      3.44208753326504     -0.78272639931631
  H   6.07351565340753     -0.67639612237510      0.62969739432612
