22
Coordinates from ORCA-job 16752optt
  Br  1.00713744355120     -0.66836747225954      0.49038212740911
  C   2.81932951383454     -0.49639254594503      0.04079794941185
  C   3.66546917865333     -1.53040260307350      0.22362208376859
  O   3.23880873949133     -2.68284303073515      0.80564013888887
  C   3.16971641559575     -3.78769898676655     -0.08169368731082
  C   4.48071354177995     -4.56338860853314     -0.08179283185762
  N   4.54946240366854     -5.46885501289175     -1.21229587704931
  C   5.04597117045167     -4.79679343458629     -2.31204944711998
  O   4.97847217713456     -5.10503213360213     -3.45763122102637
  O   5.67257142558615     -3.66740065619289     -1.85779485487485
  C   5.71316085797746     -3.72393786110897     -0.43736967712903
  O   5.87298987201029     -2.45698357767417      0.10656591117045
  C   5.06191451670494     -1.39626484077078     -0.14630803302182
  N   5.66508409260508     -0.35993287235840     -0.58694812578561
  C   5.06746922633718      0.85881279204767     -0.79662639383600
  O   5.63745757025758      1.84779965233052     -1.14422009558332
  S   3.27188902497931      1.04026595934312     -0.56875456933909
  H   2.93172933709304     -3.44553016416318     -1.09395458244344
  H   2.35715874982596     -4.42609567106970      0.26598758569435
  H   4.63125377573209     -5.06756714123231      0.87155820127174
  H   3.85005412076310     -6.17401645918215     -1.38629703906724
  H   6.61318684596693     -4.25737533157564     -0.13081756217048
