27
Coordinates from ORCA-job 16769optt
  Br  1.36861840216026      0.39815775847084      0.65378201714157
  C   3.13920713212655     -0.13437543353099      0.23734787518084
  C   3.55037051407146     -1.42082800778732      0.61440972826807
  O   2.66849344288200     -2.23292120589185      1.23651590453784
  C   2.95230152132550     -3.61672186433345      1.10069330257948
  C   4.35768416230053     -3.91517831313603      1.60832385672136
  O   4.65782173250461     -5.29966490136845      1.55955628663359
  C   4.66263579140069     -5.85716941922158      0.26061832821097
  O   4.95315785410052     -4.90166108226251     -0.72003416448967
  C   5.96676101986840     -4.00903563293585     -0.29056572113883
  C   5.41676436111670     -3.11202562225265      0.83345266141014
  C   4.86365822922166     -1.79034325547259      0.35279428007536
  C   5.67481272370810     -0.86603064959896     -0.30321863047791
  C   5.16314242361788      0.36681706814790     -0.65060642112301
  N   3.90854332734106      0.72813417820762     -0.36936113014130
  C   5.64564644707634     -6.95639429858584      0.26932741312525
  C   6.43611222355453     -7.85308952189272      0.26348289462828
  H   2.84980459837232     -3.90055841659084      0.04971771317568
  H   2.21184128669767     -4.14278771822286      1.69930508292398
  H   4.39225782622401     -3.65582601129048      2.66610762191763
  H   3.67361921747861     -6.24784438211219      0.00516037063479
  H   6.25812810288158     -3.42855931976866     -1.16343160570790
  H   6.83085778088163     -4.57909881399783      0.06226229286019
  H   6.24410478019320     -2.88436978172948      1.51008688818251
  H   6.70818292050107     -1.10684434933229     -0.52260992944697
  H   5.76987218561169      1.10317068015075     -1.16260410546232
  H   7.13559999278135     -8.65495168366162      0.25848718978038
