26
Coordinates from ORCA-job 16760optt
  Br  1.88271449014591     -0.08702080978645      0.55002760696271
  C   3.53254525454085     -0.98856998485238      0.36953322059479
  C   3.57586412642650     -2.20496318641231     -0.30795713970185
  O   2.44780214853481     -2.77630545707585     -0.78701501033982
  C   2.38606377752322     -3.03266665926834     -2.18670438111713
  C   3.15986300018156     -4.27502714705875     -2.59671823580667
  O   2.59121248659231     -5.39037958817585     -1.94107731680224
  C   3.49527202011478     -6.18482770782583     -1.19366186531357
  C   4.25676237855488     -5.28180839927144     -0.22625214387214
  C   4.97498521302531     -4.17611382338856     -1.02777911295752
  O   4.53214889333572     -4.15556565809699     -2.37856521429657
  C   4.82455663557044     -2.82259258641099     -0.37355563627252
  N   5.90416098861978     -2.26505258951478      0.16606700686770
  C   5.74064932032534     -1.10124940707532      0.77661811447989
  N   4.59718778330286     -0.43672695900597      0.90502396567108
  C   4.37720321526920     -7.00183869688207     -2.04242722710939
  C   5.09254632428010     -7.69715738326108     -2.70417289724288
  H   2.76418357080821     -2.17068865468765     -2.74270327961113
  H   1.33125464590010     -3.18099869636860     -2.41061235363043
  H   3.05503219616146     -4.41018553426336     -3.67717783425653
  H   2.86013705626208     -6.86394951035012     -0.62456324424479
  H   4.97455970467154     -5.85321447840445      0.35971155858213
  H   3.51840740976214     -4.85173689006880      0.45104591790752
  H   6.04029193509889     -4.38410169038647     -1.09455637358475
  H   6.61955425170146     -0.64498489760590      1.21537372397491
  H   5.72204117329050     -8.31127360450160     -3.30290184888078
