21
Coordinates from ORCA-job 16763optt
  Br  1.21061476052837     -0.27017571756396      0.02802486125306
  C   3.09002929947580     -0.20712233782664      0.05134997098829
  C   3.81969115035152     -1.34208597116164      0.06379024864202
  O   3.15340728394660     -2.54751974866890      0.06478339288392
  C   3.79321746707859     -3.72778838326063      0.06890426121431
  C   5.12436654381805     -3.72177312739070      0.07442825582013
  O   6.00950540511099     -4.77199370039051      0.07763998508675
  C   7.21403215936172     -4.15413987061502      0.08177509770666
  N   7.23758482123334     -2.87542763765158      0.08275046973918
  C   5.88698437784527     -2.50996943555694      0.07780009905385
  C   5.27442017483194     -1.29725592853322      0.07473499272584
  C   5.96868316924858      0.01858131318490      0.07812826294584
  N   7.23677903229099      0.18604492065112      0.08865802891358
  C   5.09040144535438      1.18258564491552      0.06827325812295
  C   3.75240643204251      1.07060696812573      0.05506163731404
  C   8.35608665522289     -5.02028714293784      0.08306810796170
  N   9.25298149281340     -5.73090490929596      0.08336374693349
  H   3.13841471046084     -4.58499467115089      0.06775580934297
  H   7.74398012197536     -0.69573886930856      0.09466346548566
  H   5.57856894261185      2.14705327011414      0.07202625370104
  H   3.12784455439699      1.95430533432160      0.04801979416472
