22
Coordinates from ORCA-job 16767optt
  Br  1.10188888208798     -0.24373475694594     -0.11030091712016
  C   2.96762274829207     -0.18278348853686     -0.08764220510913
  C   3.68446209098338     -1.31577598575345     -0.07614324217207
  O   3.02901623442077     -2.49511814184395     -0.07539478886706
  C   3.65782437860945     -3.70564336855942     -0.06967942405951
  C   4.97860449765486     -3.73386623103490     -0.06356974369975
  O   5.86145434885981     -4.75133193852978     -0.05833607680395
  C   7.14162661435290     -4.15362351978565     -0.05519445777937
  N   8.20870050569283     -4.79779077600147     -0.05266409913231
  N   7.01675073687597     -2.75727643841438     -0.05605688016837
  C   5.75562706988516     -2.51463086243119     -0.06148724234437
  N   5.09872057674401     -1.31444972912582     -0.06507820830632
  C   5.82513971460865     -0.07691458093124     -0.06364596544614
  N   7.07261696699114      0.06006693713733     -0.05829997663914
  N   5.01205410699282      1.03584247792487     -0.06787409603810
  C   3.62580658903807      1.12063174025211     -0.08056039154162
  N   2.96488787937109      2.20167557625566     -0.08479628487281
  H   2.97121214799911     -4.53616247197122     -0.07080371667583
  H   8.03783878548250     -5.80028061692396     -0.05335737511965
  H   7.58673286149839     -0.81370428180801     -0.05470938970794
  H   5.54123078926425      1.89589746674688     -0.06425098919937
  H   3.56718147429476      3.02197299028039     -0.07715452919704
