24
Coordinates from ORCA-job 16762optt
  Br  0.97916391945200     -0.08973209921648     -1.22111033807183
  C   2.75455738254196     -0.13237847121801     -0.62026590424457
  C   3.32668783633005     -1.28785130998390     -0.25162662319437
  O   2.67272927263639     -2.47806546816310     -0.41348308609426
  C   2.16026891964303     -3.10795991356038      0.75870444615053
  C   3.27753802863939     -3.81621127804518      1.50732215263400
  O   3.99773470247698     -4.65679804583622      0.63890630744205
  C   5.05958401240216     -3.89761209643621      0.09134479763259
  C   4.86827300970197     -3.67710645111876     -1.39756308650057
  O   5.49709477559774     -2.86298158949145     -2.00976423435503
  C   5.11573517627006     -2.60604845184849      0.95603551531441
  O   4.21750297852379     -2.90335557351372      2.01461508451229
  C   4.67905950637655     -1.31218258205656      0.29109013346903
  N   5.49516720440888     -0.33170199858332      0.35702808183766
  C   5.21527515948300      0.93013990994948     -0.16022154752664
  N   6.06636621123354      1.84723474859806     -0.31351582327654
  S   3.54102127365336      1.40188652601705     -0.58621807471857
  H   1.43254644893362     -3.83788607583539      0.40724159350580
  H   1.67015894331634     -2.37558434425305      1.40513737059114
  H   2.88563639034913     -4.40666926202855      2.33583166855287
  H   5.98688345366723     -4.46394117999157      0.21520750543735
  H   4.13297899447054     -4.34790695078919     -1.87421795231665
  H   6.10202801568076     -2.43603141695286      1.37826538708462
  H   6.97700838421152      1.52474337435784      0.01325662613467
