23
Coordinates from ORCA-job 16766optt
  Br  1.12480481336243      0.02106780911592     -0.50408269465693
  C   2.95860362657811     -0.24900848979588     -0.30441629487203
  C   3.45028413601509     -1.45038495340535      0.04586168913111
  O   2.66262886147472     -2.50116698890463      0.32034978262724
  C   3.21039809291176     -3.78897770254696      0.08430346239729
  C   4.47524324556889     -3.95302698054212      0.90857179961468
  O   5.12338104343372     -5.18057864115265      0.56965246633313
  C   6.01715348858379     -5.00223168153218     -0.44873359819339
  N   6.61873787445608     -5.89242041937238     -1.08189839142656
  C   6.17210250570252     -3.50631196550628     -0.67057879406098
  O   6.69200037366588     -2.96679013812168     -1.58989953995165
  C   5.45609460951862     -2.85193221289566      0.51764331754103
  N   4.81299426772761     -1.59985381131954      0.20514655341204
  N   5.67352204192842     -0.55607370693812      0.09776697915263
  N   5.26316899149261      0.56931741157126     -0.21502591312602
  C   3.88486123251292      0.84974202848711     -0.50327021442340
  N   3.53381879976215      2.00225450315699     -0.88820486723563
  H   3.43427789067561     -3.91432603012259     -0.98201955662954
  H   2.44631027306881     -4.50513099150115      0.37277829366039
  H   4.24975564298880     -3.97417059027525      1.97214879518704
  H   6.35845042760319     -6.82878502516276     -0.77111004360100
  H   6.19904875342366     -2.68461614328942      1.30159481239426
  H   4.35335900754456      2.60540472005335     -0.94757804327369
