24
Coordinates from ORCA-job 16777optt
  Br  8.19057527792264      4.43478777106433      2.58426362422325
  C   8.59205202217968      2.78843263197785      1.78355146782456
  C   9.51596935348763      2.66271572561721      0.82427871389939
  O   9.78632670669167      1.44199019529874      0.32822114826796
  C   8.67976963863522      0.63243475624774      0.10060396397445
  C   7.83159837763600      0.53713820351456      1.27841148185613
  C   7.81552909843138      1.59941921700133      2.10456908979629
  C   8.45135645680057      0.23694071597477     -1.16675182136550
  C   9.15822693818529      0.95155432582355     -2.23059072281025
  C   10.45902286437865      1.23885901577163     -2.12261855433755
  C   11.08720761921009      2.49128721315918     -2.58544489974143
  N   11.08130396379883      3.03694430181699     -3.72642110512851
  C   11.85882777461289      3.15880072575715     -1.47913052539024
  C   11.45846370612827      3.55721593993210     -0.27116129730449
  O   10.15870969652200      3.66694381614048      0.19524919831740
  C   12.41550637949438      4.09575285939541      0.66505288833702
  N   13.16924172742328      4.51190403444584      1.42273909028811
  H   7.17158741159610     -0.30814828377334      1.41121730064647
  H   7.16489824512776      1.63032861707002      2.96760076065010
  H   7.59286516709056     -0.39220000053980     -1.36196684812326
  H   8.53709904184839      1.46888344478397     -2.95814349178575
  H   11.04766883318233      0.68636872824895     -1.40318766331855
  H   10.57393809498243      2.45709345731589     -4.39687841311623
  H   12.91525560463371      3.30155258795540     -1.67946338565936
