26
Coordinates from ORCA-job 16776optt
  Br  5.58442943074814     -0.18474457045238     -3.68934897334745
  C   6.21656938776176      0.91750783037176     -2.29856439630502
  C   6.85264204504094      2.10035994846476     -2.57463160992352
  O   7.24073121167542      2.90102784010657     -1.55841835135734
  C   6.70217297725728      2.52969012478619     -0.28498518050098
  C   7.07740992490282      1.07588426657591     -0.08408477750474
  C   6.45379982197149      0.29547890276180     -1.01512263674569
  C   8.43032436837579      0.97061888831281      0.44801194560245
  C   9.36814567166589      0.80446775798831     -0.54327353395583
  C   9.28472771157138     -0.16157534920795     -1.69553415244896
  N   9.45101276906079      0.72371665660448     -2.82865319057414
  C   9.98067565529727      1.90346511087393     -2.35627409788462
  C   10.19025160120000      1.89799032319355     -1.00638029272997
  N   9.94322008980205      3.02062655027307     -3.18577486305758
  C   8.84725351224812      3.28829940141189     -3.76893148094147
  C   7.51437792242185      2.49574807138751     -3.83707054847529
  O   7.11356049953560      2.25732878897668     -4.94776057974677
  H   5.61781938646038      2.65903544859721     -0.32833667879523
  H   7.14620395942259      3.20578850007986      0.44025667360121
  H   6.48050114881418     -0.78523568198592     -0.99417311116224
  H   8.67604233260449      1.70767884041986      1.20559126763493
  H   8.35464098170037     -0.71990926227416     -1.75427385656018
  H   10.11050235331651     -0.87598452129265     -1.59309917148054
  H   9.71320492838145      0.38285546553392     -3.74123887223235
  H   10.38363377995240      2.79478101997225     -0.43946018329384
  H   8.83014652881095      4.16009964852070     -4.42146934781481
