22
Coordinates from ORCA-job 16774optt
  Br  6.68058224470883      3.50659607704933      3.56399388658391
  C   6.49756963943306      2.33691844478662      2.12842336728924
  C   5.41273323897086      1.62957189259813      1.79232609404929
  O   5.58026851539082      0.82272594824132      0.68803306755661
  C   6.22026219638759      1.47671540588446     -0.36563771848226
  C   7.31240458881106      2.15527441726703     -0.00538518871776
  Br  8.48282068252310      3.10311252993606     -1.08147278815734
  O   7.60973660909137      2.25704041961095      1.33854903103475
  C   5.48287959437580      1.60799632796022     -1.68766957660743
  O   6.06045762282761      1.93943113441630     -2.68830330058308
  C   4.01021009704501      1.52027711844779     -1.49969390447303
  C   3.53799885728911      0.50453738419102     -0.77872190090570
  N   2.37893256681163      0.42765860108442     -0.00497755366076
  C   2.81969631671863      0.04717897041971      1.32325996464358
  N   2.98971162256697     -1.13257749648348      1.71238185854389
  N   3.00859220832139      1.14159200831916      2.17071204087674
  C   4.08420575429182      1.76484380623376      2.40445187491105
  H   3.43777108144124      2.40850848140188     -1.74028420748035
  H   4.16527394912112     -0.36442565568191     -0.63122587146227
  H   1.87888022227145      1.31095289553424      0.01943667208963
  H   2.69446859453553     -1.78826749472866      0.99136954070757
  H   4.03254379706597      2.56033878351162      3.14543461224372
