27
Coordinates from ORCA-job 16784optt
  Br  2.15836283685639     -1.08307911053976      0.01876614796363
  C   3.33546617824963      0.18140107243586      0.77713030115317
  C   3.49348950997689      0.16773051471443      2.12860379300892
  O   4.39069670869237      0.91821732719083      2.75346152908281
  C   5.26815542549478      1.59655453026544      1.84415230951264
  C   4.44922880459775      2.42538949538142      0.86830259177977
  C   3.34191378497526      1.58440928963698      0.28740021977721
  C   2.19289520496623      2.07011425115282     -0.22702360205311
  C   1.59450413242699      3.31838867957457      0.34022652746263
  O   2.08208144993762      4.41392870879631      0.41289926962969
  N   0.33225974225374      2.94461705025929      0.90160718362865
  C   0.35857903533094      2.21514360650517      1.94440021476315
  C   -0.73780689877086      1.30478482715326      2.46010572898338
  C   0.05050894293736      0.01779311662240      2.84679338462136
  C   1.46950162627081      0.51358512465060      2.90842601898602
  O   2.55649231404405     -0.34796138013766      2.99006107406243
  C   1.58186223141880      1.81872337584004      2.64416338316968
  H   5.84397913523127      0.83714566827674      1.30834156587171
  H   5.92547022964635      2.19891372761550      2.46313276301131
  H   5.09980438568817      2.75938442305809      0.05655548949525
  H   4.04462660986917      3.33202271200174      1.32463512971785
  H   1.45365082195319      1.35879145056171     -0.56482434907810
  H   -1.49956998927165      1.12588622044241      1.70578835313910
  H   -1.20746913453714      1.74552835680981      3.34006271993908
  H   -0.04324246727652     -0.75189140901031      2.08014705752496
  H   -0.26685202267959     -0.41417943755731      3.79629347156238
  H   2.48741140171799      2.40065780829962      2.63339172328441
