25
Coordinates from ORCA-job 16786optt
  Br  3.13374063137284      1.14086086737111      3.61651801560362
  C   4.20475553149387     -0.15823923674068      2.75427311510341
  C   3.75586548864511     -0.74565930567896      1.57050244333570
  O   4.61906571675488     -1.36855976181642      0.77190578206517
  C   5.93715046814310     -1.44936656075665      1.32213210194126
  C   5.80433942978352     -2.04744709957191      2.70784233073244
  C   4.81120707821338     -1.23830775550615      3.49636102568034
  C   4.17907777205429     -1.68798998804252      4.63787180564370
  C   3.93869843137529     -3.09675778726373      4.75013853014583
  O   4.61574675051757     -4.05196175823063      4.53906221429438
  S   2.09583102013935     -3.51295459694332      5.28618001848628
  C   1.00353169189564     -3.50047466273117      3.93288226757811
  C   0.92972187126042     -2.78616957732381      2.77691782329270
  C   1.86989461521937     -1.72367028357353      2.50940199669535
  C   2.38996996087942     -1.24380474930518      1.36516853073365
  C   -0.03834437697886     -3.15272640363284      1.78814273025211
  N   -0.79814112303558     -3.42151829005511      0.97037887544238
  H   6.51236333371728     -2.06793667534956      0.64075059722085
  H   6.35756628389800     -0.44094637050043      1.37228823511999
  H   6.76483678986634     -2.02111717949184      3.22758605630078
  H   5.50151278862107     -3.09642938537483      2.66598064173141
  H   3.45263071335184     -1.04571093700804      5.10969836115053
  H   0.24015061157905     -4.25673700023776      4.08838640742084
  H   2.28280675593862     -1.36135924585397      3.43411040527965
  H   2.09402176529413     -1.57801625638204      0.37851968874947
