25
Coordinates from ORCA-job 16785optt
  Br  5.80183553919202     -1.71409156707571      4.23505258781944
  C   4.29762074763022     -1.57795778195429      3.11427203438488
  C   3.14673053827568     -1.05169393681975      3.54112100519340
  O   2.07674705127202     -0.95093931560884      2.68970610587802
  C   1.96289738355262     -2.00694120400393      1.81036087585768
  C   3.20614628298320     -2.42678758885802      1.17172824642851
  C   4.36384971055272     -2.15047665069961      1.78505131027939
  C   0.76326038519741     -2.60666107124909      1.72528042382149
  C   0.84467793518051     -4.08446542716172      1.68818220957206
  O   1.42433217123127     -4.77996816618666      0.91104367947580
  N   0.35703625639328     -4.60034748634687      2.96839498396846
  C   1.37711827228249     -4.45078064398049      3.96736964627533
  C   1.48241538522046     -3.33798211414028      4.69983218569967
  C   2.44425961336659     -3.03589704655267      5.77033872740935
  C   2.98569101175946     -1.82786873292873      5.94854281602835
  C   2.82070249318761     -0.69154357378354      4.97899069382195
  O   2.45479824608209      0.40472178609701      5.29783203291125
  H   3.15141144921080     -2.95535094286144      0.23257744220942
  H   5.32259449203367     -2.40924134946522      1.35758723248558
  H   -0.03770235732037     -2.16063475467883      2.29834395118678
  H   -0.43797835390552     -4.03962721421124      3.25640452054881
  H   2.07940474732019     -5.27321262711379      4.03810331810105
  H   0.77513600596399     -2.53949104339799      4.48847423446841
  H   2.66652225158558     -3.81503665752101      6.49156250200470
  H   3.58649274175199     -1.60572488949724      6.82184723417017
