25
Coordinates from ORCA-job 16781optt
  Br  7.77437405900959      1.00706084009251      2.69595388410697
  C   7.22886410815481     -0.66737845826451      2.02661835179575
  C   7.56662750247581     -1.80600851891567      2.69537246319790
  O   7.13319810958442     -2.99457815126381      2.31942833695921
  C   6.22280412280424     -2.97107046982993      1.19049237591171
  C   6.84900420980513     -2.09669248374178      0.14379026583554
  C   7.01173317220787     -0.83039576121145      0.59814338880511
  C   7.92464943007224     -2.78206081530964     -0.60236342481155
  C   9.17342525852343     -2.35374554200921     -0.34206437828210
  N   10.27013615793810     -3.20195271182321     -0.13400230603320
  C   11.05455587143262     -2.68418463154744      0.71294734273312
  O   11.89535708576269     -3.41555433926887      1.47550446335292
  C   12.03511929986452     -3.05117546303614      2.81985631084807
  O   13.05160496225760     -3.32244759017073      3.36843663037228
  C   10.89803740048592     -2.35760118729180      3.48577106118844
  C   9.63928866041226     -2.52773881289971      3.09382207839414
  O   8.55431474401411     -1.89913791220032      3.64749482307766
  H   5.27985313226627     -2.55572466269710      1.55100550366515
  H   6.10496728900521     -4.01048059990471      0.89971795044816
  H   7.45910231401212     -0.05762783723122     -0.01838967935633
  H   7.76637346316791     -3.79953029385891     -0.94140611695125
  H   9.29203775965887     -1.34115370681044      0.04011107153266
  H   11.04065438143147     -1.62374935775707      0.97084864776154
  H   11.16454932860333     -1.74764167644538      4.33759835495586
  H   9.38336817704930     -3.19742985660343      2.28231260049221
