27
Coordinates from ORCA-job 16792optt
  Br  2.21226463331984      0.63199325579578      0.60795863342867
  C   3.66658639683932      0.60141786914055     -0.56085393290559
  C   3.67264172267336     -0.31517031660147     -1.60094224036279
  O   4.88148318519348     -0.56265197573416     -2.20228354341924
  C   5.46829411586591      0.58389273206052     -2.82654632562775
  C   5.47638133550439      1.76874636215613     -1.86647288520820
  C   4.16306321658415      1.85914675994654     -1.13540951703505
  C   3.21255468970229      2.76319226122617     -1.43862180037719
  O   3.36690847184886      3.59747714058678     -2.53002866884774
  C   3.07965105694993      3.07356189247335     -3.77179798906432
  C   2.14714056773318      2.17634505750559     -4.14009406960615
  C   1.04330448283660      1.51404514116700     -3.35874175070290
  N   -0.15290098229232      1.94813980492383     -3.40638807274669
  C   1.38054382030264      0.42828923966731     -2.42234933438292
  C   2.56969869346114     -0.21404913632758     -2.52075347698366
  C   3.93237428063334      3.65725072010396     -4.77003968526369
  C   4.65737149379141      4.13374506127304     -5.59651204099096
  H   4.89952610953934      0.83654981058594     -3.72661323883099
  H   6.47333241538165      0.28843596979574     -3.11835181215900
  H   5.66456827182382      2.68967705674921     -2.41797921317371
  H   6.26738119175831      1.63810365282386     -1.12643843355621
  H   2.26812125806169      2.85759153714065     -0.92260744846318
  H   2.13338878051170      1.98147420536066     -5.20680357267928
  H   -0.22325790915145      2.76853311860781     -4.00843419577328
  H   0.70727811447630      0.32924977180175     -1.58370148438333
  H   3.01735551035161     -0.20485342030242     -3.51522511351375
  H   5.29694507629942      4.56086642807341     -6.33196878737101
