22
Coordinates from ORCA-job 16797optt
  Br  2.13382823586017      1.21332690237898      0.09537632298735
  C   3.45548381838185      0.46914001449686      1.19594254557642
  C   3.89205346789596      1.12459361597401      2.31787484717586
  O   4.99847109235323      0.72500614292702      2.97843027792961
  C   5.54954433842372     -0.46517611472333      2.59096749312179
  C   4.85969916749462     -1.36193256043145      1.87812090280487
  C   3.50141219903110     -0.96139334770273      1.48022479948487
  N   2.48657618143710     -1.70779530210084      1.67837067348460
  C   1.14254125679897     -1.36915447323024      1.57082999976615
  C   0.25208752586012     -0.76613055818826      2.38756484035245
  C   0.22018168094799     -0.06343275129285      3.71768797031009
  N   -0.50879206320068     -0.35248996983983      4.68751855700382
  O   0.93064508105941      1.16004405476721      3.85295631516991
  C   2.17493088737375      1.01067788797111      3.44852790391583
  N   2.98272033612781      1.91403378637545      3.03732086463077
  C   6.87538091632986     -0.66735306620387      3.09220643701098
  N   7.93657512662398     -0.84770270960221      3.48511989042514
  H   5.25905398734207     -2.34256354752405      1.66595128612490
  H   0.68948630047093     -1.80212733877443      0.68177417928980
  H   -0.76289057912758     -0.84115682936140      2.01336745955762
  H   -1.03367314148282     -1.20510233141240      4.50446623821901
  H   2.46368418399839     -0.04231150450274      3.45840019565812
