23
Coordinates from ORCA-job 16791optt
  Br  3.31103164761706     -1.76371441389964      1.97454482263857
  C   4.45078482036071     -0.86137884145888      0.78364901879747
  C   5.60569607766337     -1.42254593739307      0.36900153138175
  O   6.33721408045101     -0.72058992539699     -0.54401850679956
  C   6.35081727472041      0.63542513811796     -0.55946196789377
  C   5.08492158063758      1.23825511095901     -0.24762839210552
  C   4.14943864645559      0.48976081555097      0.38233110615005
  C   7.53958691629025      1.24432527824760     -0.83465202179094
  N   8.66058617261899      0.48713434338728     -0.80341781512701
  C   9.84830141203252      0.26053594854248     -0.63454254014949
  O   10.32029524707703     -1.05479968041403     -0.29047319718581
  C   9.41134746496394     -1.91814557067824      0.16343317759899
  N   8.30809975425381     -1.59262680608033      0.72052398983540
  C   7.56474778186259     -2.75938886145537      0.71154540660051
  C   6.21365428945946     -2.71031255948889      0.67594652059335
  N   8.34300344138143     -3.90356990924751      0.38108780342313
  C   9.45664342055017     -3.39878067251541     -0.01163875229309
  H   4.92618732028661      2.28864404651094     -0.45028526309897
  H   3.20069175524762      0.91760455496112      0.67609475412738
  H   7.56283106843236      2.31734073125134     -1.00489990065872
  H   10.73253418062727      0.89516245704109     -0.68521679787842
  H   5.61384990147791     -3.60938807542186      0.70702373379069
  H   10.27173574553217     -3.98394717111954     -0.41494670995599
