26
Coordinates from ORCA-job 16798optt
  Br  7.78372375144097      4.74775224682588      0.70645097745078
  C   7.26706629248188      3.55932261750951     -0.66983290117904
  C   7.40638203242727      3.86239486850148     -2.00872044679879
  O   6.68351563996171      3.04764724114942     -2.82062511628905
  C   6.86546407440806      1.61083134879051     -2.71712261536145
  C   7.40100324669111      1.27849110364667     -1.36410349768281
  C   7.20119350483481      2.16862408910180     -0.34047220532773
  N   8.04166967449743      0.09032239288425     -1.11416898730613
  C   9.09286457782353     -0.33833077046144     -1.68182617727628
  C   9.97495470160469      0.28941084623017     -2.74608250216156
  N   9.89765082472008     -0.23888632057901     -3.89017300731028
  C   10.90288618219954      1.39194907217522     -2.33299472717851
  C   10.49483282532329      2.65606203834725     -2.50143277296564
  C   11.05680403673718      3.96968269012367     -1.98443323658760
  N   9.81137473099720      4.75213506644739     -1.88272096107379
  C   8.81331329782239      3.97770937507866     -2.38831697880353
  N   9.21752956127478      2.89147966315411     -2.99420491960161
  H   5.85291978831369      1.21295716273329     -2.80468370961021
  H   7.49112560495329      1.22693950602037     -3.51933597997468
  H   7.39308383392224      1.87068780629430      0.68054470276041
  H   9.43375204533785     -1.32443012415317     -1.36392605320947
  H   10.54164612111445      0.22099445934793     -4.53692376459503
  H   11.83004370651330      1.13923359271512     -1.83517227671124
  H   11.75232145092682      4.43162889010318     -2.68827780253601
  H   11.54393926348765      3.86654695787892     -1.01598380692097
  H   9.65293923018450      5.39684418013446     -1.12646123374975
