24
Coordinates from ORCA-job 16793optt
  Br  0.90346306228084      0.36596066635204      1.21073081198600
  C   2.76528557467319      0.62047539696170      1.10469300920997
  C   3.31046930897206      1.47042023377971      0.19150044548499
  O   4.61770330289423      1.49601919637904     -0.07874487936146
  C   5.37028228434222      0.48985189226731      0.59749824969908
  C   5.07000659871968      0.60215009705755      2.07440397685690
  C   3.58703338913945      0.43622547447381      2.29383721253533
  C   3.01784005101619      0.51587979337601      3.51229111873450
  S   3.90119666707660      1.08651024986038      4.90916331448970
  C   3.80316732262201      2.85696449122723      4.73492620770229
  N   3.39507931935685      3.61735770946094      3.82085885866175
  C   2.79676485229132      3.36443741744471      2.61495915023771
  C   3.34744945174142      3.70981886947232      1.43739354331371
  S   2.64517420497856      3.14739931896534     -0.06611006630080
  O   3.32873917208053      3.75755693559204     -1.16050303921365
  O   1.21935884236900      3.12242442819584      0.01084214499201
  H   6.41100091401911      0.68538129527141      0.35736357122600
  H   5.07132790986420     -0.48898097425033      0.21025330657596
  H   5.38517285952202      1.58736224621427      2.43207446854939
  H   5.62140500424949     -0.14411404701368      2.64777691281466
  H   1.95038848576183      0.41261530863759      3.63688052453209
  H   4.20118073333330      3.31328758589322      5.64129781854932
  H   1.79462140652288      2.93726631999108      2.63422684526935
  H   4.33488928217298      4.14073009439044      1.34338649345519
