24
Coordinates from ORCA-job 16799optt
  Br  1.17756384408858     -0.72843127424195      1.15632264274974
  C   2.53716359219536     -0.60660743579047     -0.12454484333294
  C   3.11995903245248      0.56214563887914     -0.40961084039287
  O   4.10215772307578      0.60299015155840     -1.35381667524531
  C   4.93809239522669     -0.49042841579240     -1.44773506172610
  C   4.44589120570882     -1.70865822224215     -1.23370637931722
  C   3.06085261824729     -1.85368101398916     -0.74175626315363
  N   2.38638483679591     -2.92925296994109     -0.69459683492885
  C   6.28110245291642      0.11924222474053     -1.46902721120897
  C   6.82623045365693      0.22072767665645     -0.25586265429752
  N   7.38586055210077      1.43823259854561      0.20085857608969
  C   6.48966357134615      2.17762690743301      0.68942794256394
  O   5.21547766721772      1.70487518763503      0.82873116007746
  C   4.07932924445959      2.44722441038970      0.77257461559970
  C   2.97637089480900      1.88955250653125      0.24641021594027
  C   1.72383950489066      2.56603419499796      0.28831729174950
  C   0.66263455828261      3.12251132921647      0.31033399067113
  H   5.07424248864600     -2.58487307319733     -1.31282087472371
  H   2.90337053539215     -3.69815308992988     -1.11931076912803
  H   6.42442477036429      0.92935420427227     -2.17503887165027
  H   6.63142102201809     -0.52451992053667      0.50957905934945
  H   6.67637784605947      3.18420290957509      1.05402824457701
  H   4.10384742065091      3.44044976743244      1.20669367675475
  H   -0.28325823060177      3.60843570779774      0.33954986298279
