25
Coordinates from ORCA-job 16801optt
  Br  2.96086295552889      0.12322460305346     -0.49712155833647
  C   4.49731110287138      1.20116840813355     -0.39045892857047
  C   4.38516704449481      2.48492628753319      0.05804990133568
  O   5.39399635967785      3.34348831888047      0.09194755449271
  C   6.59714306975525      2.86493487715663     -0.50730157311423
  C   6.94141728555054      1.53238162403413      0.11116458166397
  C   5.74822303922024      0.60670970810064      0.06924131216710
  N   5.73827103489889     -0.52898379767638      0.66022309172881
  C   6.32375138700590     -0.70345535980761      1.88468512729252
  N   5.93273619606456     -0.01085295384261      2.89756249744319
  C   4.81389382637809      0.76804732235751      2.67485470320558
  C   4.70072044344644      2.10777371566951      2.73425960007414
  N   3.51092501185507      2.73984546732896      2.26051178438791
  C   3.25459055367011      2.99116550230934      0.91142056277609
  N   2.26436916129591      3.57642444580769      0.39714049149900
  C   5.81980799324015      2.93273605476101      3.09018034404580
  N   6.71972148613087      3.59692597726805      3.35435942559000
  H   7.34971334460830      3.62491996056982     -0.32135362730269
  H   6.41878960000044      2.76182062853493     -1.58175448409237
  H   7.27021252924474      1.64841232231516      1.14696286079288
  H   7.75244086056940      1.05931077818452     -0.44567657707777
  H   7.06214372123768     -1.48726041464246      2.02667628181955
  H   3.92405339704248      0.22753526301306      2.34998969042987
  H   2.96194938104852      3.27792219279210      2.91552865933261
  H   1.58478921516343      3.87687906816527      1.09590827841658
