24
Coordinates from ORCA-job 16806optt
  Br  4.33751375472408      1.45435478383989      1.90544367948523
  C   5.08100832832794      0.08985616333148      0.85601236496288
  C   6.41487032714356     -0.00610973418017      0.69480538572000
  O   6.94362168953427     -0.99943924830269     -0.06549082235172
  C   6.17836269061843     -2.01057270149469     -0.51515561884433
  C   4.84669477700105     -2.00962155687394     -0.38495025870713
  C   4.15955798982805     -0.88409739464229      0.24493013095381
  N   2.89776567144627     -0.72722064105304      0.33406812061288
  N   6.91155434578805     -3.06916215169635     -1.03792183868827
  C   8.09192457509971     -2.89085979867493     -1.45903070358518
  C   8.81308634782679     -1.59007547956804     -1.77941150064877
  O   8.43826740848381     -0.96156047938567     -2.73314466123600
  C   10.09491933710361     -1.21205044387635     -1.09829034634731
  C   10.24210698752155     -0.73887502647319      0.12970884584677
  O   9.21725489145207     -0.69294549495692      1.03507697240366
  C   8.73633112345786      0.55598823302809      1.32256936043269
  C   7.44499849604856      0.87060310134593      1.23490542212152
  H   4.28561791563548     -2.86287943698773     -0.73771330831266
  H   2.40697081431568     -1.48873823101028     -0.13104293748683
  H   8.65176059123984     -3.77841724100244     -1.75946464900428
  H   10.96205956439162     -1.20130452495611     -1.74805137241103
  H   11.19465587352555     -0.35806206637856      0.48860345666517
  H   9.47689639524075      1.26989289685295      1.67050520320794
  H   7.13520010424530      1.84529647311505      1.58003907521096
