20
Coordinates from ORCA-job 16809optt
  Br  1.17967964578282     -0.95098494933380     -1.06558015926371
  C   2.96455683530415     -0.46558766923115     -0.84181511994110
  C   3.68239137014950     -0.87299292560983      0.21921542458438
  O   4.97043374766946     -0.47005581268016      0.37125211511235
  C   5.69314116826713     -0.05498560800401     -0.70488178114166
  C   5.08203134889875      0.40078835919051     -1.80314976024697
  C   3.62022063494782      0.31718881844134     -1.92292644197594
  O   3.01120200458825      0.77636719072332     -2.85921453287041
  N   7.07341171043068     -0.16993490700075     -0.55548544325718
  C   7.56454116748146     -1.23830737828850     -0.05957613515474
  N   6.82597552532811     -2.36099434390315      0.30175522474399
  C   6.11186606812602     -2.27954746344008      1.32774782161695
  O   5.10131548270688     -3.15080557444473      1.55727621532424
  C   3.82600960924460     -2.66742496933925      1.76017762338740
  N   3.21866276063445     -1.71095287780666      1.21595569293754
  C   9.00757057809925     -1.36149634417873      0.01938737962550
  N   10.14151500168388     -1.48430546587329      0.12095203981592
  H   5.65522801541465      0.77046105569526     -2.63949258811869
  H   6.22080384810265     -1.52436618950947      2.10502556313400
  H   3.30844347713944     -3.30506294540683      2.46737686168814
