28
Coordinates from ORCA-job 16819optt
  Br  1.17369558136975     -0.00084822291706      0.28506191436040
  C   3.04929968010060      0.03494328944100      0.04147586764232
  C   3.71361683823942     -1.11316139420862     -0.35422343047570
  O   3.17232617891593     -2.32101129519848     -0.60566133574470
  C   4.26316369587313     -3.25253291325549     -0.77874966641669
  C   5.53436826369079     -2.41592549147376     -1.02445708813226
  C   5.08193981356925     -1.06392281182434     -0.55336881175221
  C   5.75632190996522      0.12025668853669     -0.34199296551831
  O   7.10978651801153      0.14492782369396     -0.50833923793741
  C   7.62638630355218      1.06120392947985     -1.47035945406467
  C   7.72359163860180      2.47989410580728     -0.92674242045299
  N   6.47435638294522      3.15377052525178     -0.64315845013265
  C   5.67537834324876      2.55202521222150      0.41755530731362
  C   5.01562539788365      1.23149991764127      0.08949176959842
  N   3.69635593565103      1.15903314884554      0.25532339943457
  C   8.55361471157075      3.35467558804946     -1.84935317515552
  O   9.30029197412252      2.92930963839197     -2.68492732112499
  H   4.00315794961316     -3.90832924734971     -1.60526339654177
  H   4.34199512723157     -3.83850662983272      0.13796913954462
  H   5.80961312363426     -2.38201511103945     -2.08033352631626
  H   6.39220109186464     -2.78978605861815     -0.46857129072530
  H   7.00331062643606      1.04437361699273     -2.37106837934557
  H   8.61808469708584      0.69765520385424     -1.73089567667030
  H   8.28430330357921      2.43666810642485      0.01769667157501
  H   5.91651178895700      3.25417871494916     -1.48547812948404
  H   4.88363791228871      3.24254017757271      0.70308829041574
  H   6.33470255131443      2.42502900039521      1.28153050230782
  H   8.41636266068349      4.44005448816856     -1.68724910620113
