22
Coordinates from ORCA-job 16811optt
  Br  1.47359409612338     -1.66107582320740     -0.59000380073058
  C   3.03174179585665     -0.95747771598538      0.18563688612174
  C   3.33374932960123      0.39921020513804      0.13137541589010
  O   2.48446157466230      1.34000469812517     -0.35164192489430
  C   3.22264714453194      2.46372912387982     -0.56000342506973
  C   4.51734405215365      2.30117565528283     -0.22760830808797
  C   4.64035197872720      0.96087400112904      0.27792793495591
  C   5.66875564423713      0.11844007544382      0.71371563585905
  C   7.06776953478954     -0.08310688927409      0.21055337289694
  C   7.36361044552291     -1.41883897135330      0.31021471597111
  N   7.93534676520194     -2.39614967753803     -0.59186504347971
  C   7.07003513631583     -3.35038717027127     -0.65894282647302
  C   5.87532823137051     -3.11240555850599      0.25521730410413
  C   6.27989100553412     -2.04712618611655      0.98138599977722
  C   5.21766331855459     -1.14389484483677      1.13733179557759
  C   4.08003150230755     -1.77232337007547      0.61939482710194
  N   4.49212930832128     -3.03909231338649      0.14574868458277
  H   2.67517232021361      3.30943224797531     -0.93965018999583
  H   5.28756372188864      3.05058406659542     -0.28945000712383
  H   7.59309345189548      0.64844360847220     -0.38678030471363
  H   7.22112182534250     -4.19769024276301     -1.31517765944323
  H   3.87559781684798     -3.70632491872791     -0.28937908282666
