23
Coordinates from ORCA-job 16822optt
  Br  1.24488122955882     -1.24954364767803     -0.15631440980535
  C   3.06956066199354     -0.87266589352669     -0.03292052322216
  C   4.03430671742121     -1.79469262259290     -0.19121799810967
  O   3.87274474936263     -3.11548601145753     -0.49359665837250
  C   5.12286734517139     -3.75644361167381     -0.20353253056708
  C   6.21179315378651     -2.67507392990340     -0.27525367865624
  C   5.40267726650683     -1.42783099696111     -0.06428545937998
  C   5.76525864988028     -0.15301278162039      0.18267128284040
  Br  7.55557909788778      0.36442843865791      0.31708513523242
  C   4.75236697170138      0.89306892745749      0.35107930143172
  O   4.96311568332440      2.06218163725655      0.58008627093610
  N   3.44516187149865      0.41823208607158      0.22624626588033
  C   5.04269079378126     -4.39944957175987      1.18503794616805
  O   6.01086391431974     -4.54333388024839      1.87130199246219
  C   3.65863516663280     -4.86687799266469      1.64132230874212
  C   3.06706308707038     -5.77445425318642      0.66253952515806
  N   2.64392759394151     -6.49732624036422     -0.11865970648027
  H   5.25316728215430     -4.55806309959294     -0.93197734582298
  H   6.70043999663142     -2.65109002796568     -1.25024163292564
  H   6.97309779414084     -2.82215476096547      0.48993897935670
  H   2.73162731711028      1.12512981045750      0.34214176975204
  H   3.00565091202766     -3.99691677296948      1.74492195635151
  H   3.76452274409617     -5.36362480476993      2.60362720903021
