25
Coordinates from ORCA-job 16828optt
  Br  0.94561672636140     -0.03969831312060     -0.05662171110718
  C   2.82459500774090     -0.00021575573478     -0.05788554672087
  C   3.56798917151693     -1.14263692242157     -0.05779139129574
  O   3.08421233979023     -2.41049399869174     -0.05700331098411
  C   4.17332129477906     -3.23921625742795     -0.05731827226895
  C   5.33593408248591     -2.57002863901690     -0.05813571738283
  C   4.99389130847865     -1.16370926958566     -0.05857356970105
  C   5.70602628854767      0.01173117114516     -0.05940880961029
  C   4.97110521662895      1.20630289463117     -0.05954694462386
  C   5.38263444008363      2.55621397257618     -0.06027533624266
  C   6.62808765316058      3.19490081567949     -0.06087283351413
  C   6.70275577114102      4.56088358995255     -0.06157565309077
  C   5.50493122581315      5.31678585483609     -0.06166343880666
  C   4.29561450883149      4.70018638417843     -0.06101116236185
  N   4.22134992933041      3.33044097925883     -0.06026409065917
  C   3.10878210747617      2.54477600425597     -0.05945089315333
  C   3.53346325067750      1.21859487283051     -0.05886995582774
  H   3.94406755812701     -4.29118589320651     -0.05682580101196
  H   6.32071286467125     -3.00501199023890     -0.05848340729479
  H   6.78858385429223      0.01660270493306     -0.05991491344136
  H   7.52033135983224      2.58281822659634     -0.06080832579878
  H   7.65962826723140      5.06262505831866     -0.06205732152840
  H   5.53397821315507      6.39698658492213     -0.06225786020729
  H   3.35078456302127      5.22341076656721     -0.06104734103761
  H   2.12060299682584      2.96893715876281     -0.05933639232860
