25
Coordinates from ORCA-job 16830optt
  Br  1.11518527284296      0.35675496304255      0.31813077298599
  C   2.97947677320558      0.21280006636490      0.08095083631103
  C   3.71476642186309      1.38635194158475      0.06480782658973
  O   3.18346462003631      2.62133745317156      0.18859464396864
  C   4.23303947291300      3.57874696046573     -0.05679461355669
  C   5.56607850368765      2.81614737507775      0.04450375477735
  C   5.09846839834888      1.38789295684326     -0.04874514618572
  C   5.77858776497823      0.19406729553359     -0.15871411178097
  C   5.05512908673386     -0.99127844988884     -0.15670230416017
  C   3.66151139527080     -1.00840536574012     -0.03364574798737
  C   2.97927641541514     -2.31077402470819     -0.02349488507571
  C   1.85337455404463     -2.73008575009497     -0.67813042899631
  N   1.50535834885834     -4.03321905759296     -0.51196886600697
  C   2.34766914758310     -4.63790043687065      0.27734642493308
  S   3.62456752006275     -3.63517102337702      0.86069153908946
  C   2.26600856348644     -6.00342815784463      0.66387100277161
  C   2.22777495567397     -7.14979158713881      1.01098435926533
  H   4.12550870274820      4.37402327487149      0.67630031624937
  H   4.08074662958188      3.98732899037522     -1.05693690597218
  H   6.06522014438173      2.99486300724343      0.99897196857969
  H   6.25517263926813      3.09301535160572     -0.75212098159077
  H   6.85697812712394      0.17217253674877     -0.24935227468078
  H   5.57190814468865     -1.93504795801767     -0.26960414897689
  H   1.25036729298405     -2.09985315613445     -1.31374247077843
  H   2.18136110421866     -8.16954720552038      1.31079944022768
