23
Coordinates from ORCA-job 16847optt
  Br  1.65510697842913     -0.02241217336751     -1.67618505661021
  C   3.28127256201099      0.04025498063409     -0.77180951973355
  C   3.98475140063442     -1.03769242124064     -0.37545648519373
  O   3.56671200727940     -2.32329359753989     -0.50320046224871
  C   4.55288409906014     -3.11962967254629      0.05395183104579
  C   5.60064423664622     -2.41832138769994      0.49651028292142
  C   5.30418859966837     -1.02644106590269      0.21111255586643
  C   6.04109248771899      0.10573653904559      0.22319695938663
  N   5.48072654411201      1.28418947073611     -0.18870925721923
  S   3.83783003516827      1.57878081073700     -0.16584627755789
  O   3.42201812672720      1.71720322549939      1.18994802439950
  O   3.61553098025938      2.65027839974394     -1.07957980915283
  C   4.25901704661016     -4.56279869048681      0.07658818560975
  C   3.88523213453822     -5.21670037959561      1.35557618381939
  O   5.17377365809348     -5.33805537856811      0.80786765161631
  C   3.73229064064344     -5.19704777327769     -1.18968012846132
  O   3.70139416256998     -6.38245219847044     -1.33606183486184
  H   6.48328086732949     -2.83042575247211      0.95444845361157
  H   7.08772824073707      0.13157168795102      0.49242406946904
  H   6.04810037350877      2.08803113251777     -0.41726251040074
  H   3.27875549843413     -6.11393611916449      1.30423342625422
  H   3.80931920544751     -4.59247412523684      2.23860369247330
  H   3.36535011437316     -4.49736551129584     -1.95966997503330
