29
Coordinates from ORCA-job 16844optt
  Br  1.03569500908590     -0.19899668548182     -0.02898948576979
  C   2.90983051047340     -0.07430343238174     -0.16133363625868
  C   3.67646816542000     -1.21792696724240     -0.08929770051022
  O   3.21462926570323     -2.46954124678194      0.06674606940073
  C   4.32815978944054     -3.37293449414438     -0.11754488256321
  C   5.61227547059070     -2.53094687786636      0.00406423673819
  C   5.06212066841306     -1.13961555195402     -0.16686576329443
  C   5.63195295386749      0.10032247365491     -0.32380850478094
  N   4.90169447454837      1.21652340673760     -0.40885377627272
  C   3.57651476780217      1.15003881429701     -0.33064275688973
  C   2.79753447097477      2.43710716763945     -0.42654213484818
  C   3.67328056348825      3.66641164563989     -0.65598326519832
  C   2.87411836286775      4.91750881924484     -0.73232898426634
  C   2.84981028576213      6.05463005495973      0.00404788315841
  C   1.85530282933193      6.90201157287162     -0.58499804480062
  C   1.35432228450735      6.21145317107830     -1.63186812649317
  O   1.96075338004368      5.00462340798385     -1.73382123019431
  H   4.22892498217530     -3.81294489887860     -1.11080317812835
  H   4.23899889072310     -4.15329800097515      0.63324463102525
  H   6.34589332330962     -2.80080153961519     -0.75378284339930
  H   6.07897515523308     -2.64725600207799      0.98386077471289
  H   6.70776845599122      0.22407638653594     -0.38706812290566
  H   2.21123583449420      2.56167276058887      0.48901446170982
  H   2.06288883246250      2.34753757344490     -1.23124323145956
  H   4.24911465964396      3.53387497495815     -1.57435097384957
  H   4.39971543029826      3.76656245494117      0.14945107996112
  H   3.46844625068545      6.26459902375331      0.86016444013050
  H   1.55950900219128      7.88816070114780     -0.27064382808930
  H   0.59906593047126      6.42445128792225     -2.36782310686450
