22
Coordinates from ORCA-job 16850optt
  Br  1.30653349762316      0.15834007522815      0.78596122303316
  C   3.10637643448755     -0.05572642742897      0.31058595556217
  C   3.92507067534647      1.01730438907468      0.25570324307702
  O   3.50848758360299      2.28110922792051      0.51506575552243
  C   4.59127711511952      3.11087419042070      0.35334768297114
  C   5.70013461644742      2.45669769671763      0.00170533139127
  C   5.32779404672910      1.05583812853961     -0.07655093605545
  C   6.03127987725536     -0.05423139014786     -0.37943252852805
  S   5.29179978497581     -1.62211003951591     -0.41116204289646
  C   3.55619240553615     -1.39880041784957     -0.00071646238466
  N   2.79120376512932     -2.40903079181154      0.01045871461446
  N   7.37738732401882     -0.02540209627386     -0.76233006937100
  C   8.33288269683034     -0.97641870168457     -0.25105381464847
  C   8.40985568000782      0.46316469847877      0.14106116101271
  C   8.05851221677540      0.81155798569770      1.49945733973914
  N   7.78316627988204      1.10617053642269      2.57195029838933
  H   4.39386258908972      4.15328225796358      0.53486716672518
  H   6.66922776730717      2.88839788291805     -0.17889744885746
  H   3.25711738354076     -3.27982681015790     -0.23127572360236
  H   9.04337062175131     -1.36020656653066     -0.96986275594516
  H   8.00006709797320     -1.66501938273425      0.51742321850208
  H   9.14940054057051      1.11003555475301     -0.31230530825101
