19
Coordinates from ORCA-job 16851optt
  Br  0.97991934209745      0.60739912926530     -0.09042085834807
  C   2.81324238731166      0.26089407044507     -0.09208884946522
  C   3.71525102037421      1.27070902482918     -0.09171159161706
  O   3.36770249632348      2.57430200217375     -0.09018293460442
  C   4.53459829544351      3.30091749523301     -0.09028355260769
  C   5.63170433759320      2.52701310543254     -0.09177784519282
  C   5.15060660911684      1.16937011368174     -0.09273022064459
  C   5.79826527697146     -0.02507578114266     -0.09420695788083
  S   4.96861128575757     -1.53332363959737     -0.09525639764498
  C   3.20575653565439     -1.13951839379832     -0.09379581863013
  O   2.45936384741619     -2.07780789111412     -0.09437963451901
  C   7.22265317989954     -0.08772700535972     -0.09497361466095
  N   8.36978328525421     -0.13002115158762     -0.09516218655363
  C   4.43263028398829      4.77951480311299     -0.08900021147657
  O   5.42738891632939      5.45782906908463     -0.08874262988498
  C   3.08849815006270      5.32615851413119     -0.08813248184661
  C   1.97000848379339      5.75190600595229     -0.08735078200856
  H   6.65381933684197      2.86723081168354     -0.09214276972591
  H   0.97619692977049      6.13522971757454     -0.08666066268796
