28
Coordinates from ORCA-job 16857optt
  Br  1.05474445790457      0.31879936182784      0.14107013792933
  C   2.93652755070389      0.30033420122965      0.21095611814697
  C   3.63906438141904      1.47506176399090      0.07519237226083
  O   3.12631316499592      2.70761038932176     -0.08642173158940
  C   4.22676153087953      3.59222871710036     -0.41307701744734
  C   5.52057812105394      2.86577272824965     -0.01049501825430
  C   5.03195952043763      1.44610292331618      0.11069167004476
  N   5.74245963941197      0.35152135663286      0.25238889961792
  C   5.05687452769050     -0.79182781436493      0.37382475709402
  C   3.66921371194780     -0.88035094731821      0.37297934049922
  C   2.95310543926416     -2.19707424228292      0.52658210152385
  N   3.85526851261819     -3.28598359375781      0.84491859562516
  C   4.33409867882233     -3.49606038349205      2.22809116436470
  C   4.39142915972310     -5.03274298182004      2.12012245454811
  S   3.32952924514918     -4.86403332046022      0.68828433079311
  O   1.94670929140835     -4.98899223789100      1.05190753370656
  O   3.77764995919910     -5.47642282377521     -0.51830523672451
  H   4.05809513730211      4.52529753316255      0.11688451681684
  H   4.18772645305227      3.77423708283927     -1.48791089217091
  H   5.90835391033375      3.21443764342586      0.94845679912592
  H   6.30745512482111      2.97257177159502     -0.75446797416109
  H   5.64148915018869     -1.69839935595882      0.45903125002393
  H   2.44139943694779     -2.44502974002210     -0.40752500979762
  H   2.17179822563068     -2.10637980657079      1.29128163747213
  H   3.60092265491179     -3.16594056613409      2.96816048616668
  H   5.29405506344398     -3.01751147564320      2.41008791799837
  H   3.93811316206371     -5.60108708420318      2.92503127519468
  H   5.36430478867482     -5.42213909899729      1.83425952119204
