30
Coordinates from ORCA-job 16868optt
  Br  1.13360238642248     -0.02061303734533      0.42030138281519
  C   2.99793341977891      0.03770447933330      0.27726500554904
  C   3.66762537281444      1.21576461675318      0.29103928693860
  O   3.05170009474856      2.40391537917830      0.31337823183232
  C   3.84859461292219      3.60019773283590      0.23134990257103
  C   5.14743400370275      3.45075200180365     -0.56232439467085
  C   5.98147965009364      2.36208045610824      0.11027050821642
  C   6.49596489951851      2.81678846102577      1.51227907458098
  N   7.80777166032676      2.21712941942193      1.71199472035743
  C   8.39768583281124      2.21465939557744      0.37494523559560
  C   7.27204527802801      1.79231435419337     -0.57920981478154
  C   7.09866262920321      0.24387140307227     -0.64399213242112
  C   5.68895336374732      0.03901113774708     -0.19178192568699
  O   5.06304228397093     -1.14089398839482     -0.25071557107257
  C   3.70614408164619     -1.22967130818943      0.10121894182713
  N   3.16688662819833     -2.36349851937286      0.19457812332022
  C   5.09122151641047      1.17161115688259      0.16705543622905
  H   4.06882400990303      3.92469747438618      1.25169493978322
  H   3.18795703227266      4.33417484596256     -0.22458483857338
  H   5.65609238465381      4.41776766913252     -0.56587135415641
  H   4.92026883550659      3.18026003956331     -1.59628626117231
  H   5.81920224530500      2.54614497898937      2.32201358805959
  H   6.61157899031095      3.90621972759786      1.51562102523237
  H   7.70147339181653      1.26350899617389      2.04381138210239
  H   9.27241361259485      1.56688551962004      0.33125754308683
  H   8.72197167422807      3.23357641791715      0.14621845658465
  H   7.40306954790429      2.19998016588106     -1.58176236344944
  H   7.81351774965004     -0.27734059434651     -0.00050989883347
  H   7.23492003103833     -0.15079809492454     -1.65280340709732
  H   3.83496278047183     -3.10320028658349     -0.00745082276669
