31
Coordinates from ORCA-job 16879optt
  Br  1.55096702757122      0.70548944879214      1.05131906118281
  C   3.16703508482405      0.31862463529473      0.15600865560805
  C   3.42072100812179     -0.98929497864243     -0.25000295358845
  O   2.42768769518738     -1.91259985807585     -0.06155336979813
  C   2.30420844286876     -2.66019437581674      1.17089668336263
  C   2.98912767517041     -4.04404787185427      1.09279167125539
  C   4.27493096774816     -3.73536372911174      0.34893635475045
  C   5.70714341912452     -4.25936989482444      0.41459647850876
  C   6.36226153094036     -3.23204857600394     -0.56664245846035
  C   7.18640026333842     -2.17942580415283      0.13456226934188
  O   7.15170259547143     -1.97609687202452      1.31869802253372
  C   5.16210330682675     -2.58850295489272     -1.41247187458792
  C   4.10165559116020     -3.63856403058360     -1.17470884727725
  C   4.66044819258425     -1.22676275006454     -0.91643451914444
  N   5.50750897195318     -0.22985784203200     -1.15501473621738
  C   5.22947959301656      1.00648687021397     -0.76067172153517
  C   4.06903118170570      1.33880251939751     -0.09000146315239
  H   1.23342402558133     -2.72660397122421      1.35507329563147
  H   2.76190953725742     -2.07853579716682      1.97551344248805
  H   2.36692517293649     -4.77300939039277      0.57104231919334
  H   3.14840372310185     -4.40030522199934      2.11238945305894
  H   4.48156628615425     -2.73087561787836      0.71680026137321
  H   5.81987640654366     -5.27957403808619      0.04648948015747
  H   6.15146762656510     -4.17756816569499      1.40460975553129
  H   7.01941451911397     -3.72357640527175     -1.28697047790900
  H   7.83557098542751     -1.57185580626854     -0.51862631910459
  H   5.47564150660140     -2.44932804761059     -2.44597930286701
  H   4.38147002161721     -4.59101964558502     -1.63227711145630
  H   3.11522292201065     -3.36338652404885     -1.52594743314975
  H   5.97139113613554      1.76455459981166     -0.98379830290998
  H   3.86730358334042      2.35181009579709      0.22637368718065
