25
Coordinates from ORCA-job 16878optt
  Br  0.84240398357062     -0.01048313977229      0.09229992737307
  C   2.69754532228390     -0.01174329997527      0.16007934802659
  C   3.45004103254387     -1.11550246715792      0.19415081300757
  O   3.07835505291204     -2.40744603013988      0.19413731067636
  C   4.25283000261487     -3.14516732694901      0.21566295928210
  C   5.36844067502910     -2.40498011116255      0.23496520677115
  C   6.79651086915994     -2.82121427732387      0.25505473739713
  C   7.58503597861148     -2.26670311018002      1.46167259894764
  C   8.87251646898456     -3.08789769576031      1.44833720174065
  C   8.45816838228021     -4.44518800791025      0.89360885505038
  O   9.12113528954120     -5.44245137852714      0.89654233868199
  C   7.04361214192752     -4.32699428907729      0.33176870606026
  C   4.88865979105923     -1.02747986126635      0.22293812994003
  N   5.55503367504356      0.06527532630677      0.22491397128782
  O   4.79870462098317      1.20634623271352      0.20428789269445
  C   3.41448062107544      1.26907839238626      0.17355490983561
  O   2.91149340472731      2.34895083446852      0.16070617028277
  H   4.10557631522110     -4.21259845812666      0.20583824977367
  H   7.26987373366062     -2.42924469975875     -0.65245538009985
  H   7.01746289802394     -2.46344469058478      2.37505508620566
  H   7.74224711203734     -1.19304751737295      1.38740224129884
  H   9.36569695694078     -3.19883090270856      2.41198274963649
  H   9.60242856258494     -2.66521748471760      0.75133675299470
  H   6.37642668137361     -4.78802473720097      1.06937854434536
  H   6.94332042780958     -4.87199130020262     -0.60521932121046
