27
Coordinates from ORCA-job 16876optt
  Br  2.94359571236035     -0.63765268451597     -1.91917613115221
  C   3.06497192469429      0.00437050231209     -0.17038555416680
  C   2.76614558574467      1.27315532019472      0.15405401056718
  O   2.40306476937914      2.21536902857656     -0.72575049559261
  C   1.11165034105260      2.11012292545793     -1.38278756044886
  C   0.33373475379881      3.40419727719937     -1.17524799493470
  C   -0.25063478288045      3.57096106824070      0.24864099015521
  C   -0.10008863150518      5.01116984621504      0.77781473523118
  C   1.32600498953523      4.99894828689795      1.35050699847119
  C   1.51802320455271      3.51575385917721      1.55476180533558
  N   2.72100901876699      2.96512468361031      1.94570729105047
  C   2.98039017447172      1.65191745708414      1.56126001439577
  N   3.46512357805917      0.87151974102882      2.44926394456085
  O   3.80794653688773     -0.40146095050225      2.07615512522937
  C   3.57749465978213     -0.93025287654144      0.83674060446258
  O   3.83551955801941     -2.07999087236551      0.65204107039055
  N   0.59092764226005      2.76262262662990      1.12792520159221
  H   0.57937794806217      1.24845452156080     -0.98025292786023
  H   1.31087965829939      1.94506998153340     -2.44038272684679
  H   -0.46153066626378      3.45666454038601     -1.92161591917612
  H   1.02192513859882      4.22713713023847     -1.38914823490044
  H   -1.27974325590538      3.21488814019348      0.27959130286118
  H   -0.82364379678447      5.18805106346972      1.57334628983393
  H   -0.24705795684814      5.76590395130844      0.00609793252565
  H   1.43770340917949      5.57088989020961      2.27185643504990
  H   2.07677903584225      5.35995579417238      0.64374017400908
  H   3.22343145084026      3.31310974822812      2.74824361935688
