26
Coordinates from ORCA-job 16885optt
  Br  3.66315724809656     -1.42764087628283     -0.94430316720702
  C   3.34750334830100      0.22134723375900     -0.10242409880775
  C   3.35917120530292      0.34755157274842      1.24526036119369
  O   3.64532323935045     -0.74895698837176      1.99810599360146
  C   2.59306450079662     -1.38277482107082      2.72583346258293
  C   1.71981101802847     -0.44783954092558      3.54796177502493
  C   2.44396056776359      0.55458583947273      4.46217678373040
  C   3.96037665582720      0.75072365156667      4.27260323047335
  C   3.52424256582344      1.89708038854275      3.34750471524526
  O   2.23043282242832      1.90335416909614      3.98075990407103
  C   3.31995379018805      1.67121005827338      1.85308109734308
  C   3.03186681748957      2.77586803837946      1.14043321487234
  S   2.37746592971936      2.66034158757481     -0.45617100738615
  O   0.98112340015828      2.38823397404801     -0.36494138088379
  O   2.84294670558370      3.69530184080588     -1.32358500345956
  N   3.16485114437313      1.28292389478897     -0.94354851756134
  H   3.11440404622007     -2.09314694889243      3.36807914775576
  H   1.96813624705276     -1.94758551563547      2.02758601430226
  H   1.05578837901078     -1.08416660566760      4.13615058777071
  H   1.07741590628635      0.13752663298130      2.88563202629114
  H   2.10297432710847      0.46156882971547      5.49242224980388
  H   4.58045319275466     -0.05269162890860      3.89767170473247
  H   4.39168809639009      1.17339060715754      5.17750836314582
  H   4.03519403962435      2.85091387030327      3.48274340253717
  H   3.07149874299468      3.77681455805969      1.54967297340090
  H   3.55219606332704      1.28406617848158     -1.87721383257303
