28
Coordinates from ORCA-job 16891optt
  Br  8.31619960923662      1.55122260611082     -0.70447928132353
  C   7.00402150112508      2.48151764956820     -1.67935869713777
  C   5.83440118640419      2.86716349742710     -1.09002062730746
  O   5.35213104939184      2.73545744550693      0.16397024577277
  C   4.03053351794445      3.30282319903529      0.14287545425257
  C   3.88663558786492      4.34705542438968      1.21730523117800
  C   2.50624807536117      4.98495644070270      1.23037035817814
  C   1.35407751454983      3.99142254768608      1.44918240190340
  N   0.31567823942563      4.84772519143822      1.98645766171018
  C   0.80793450598802      5.96800444152873      2.62212612758127
  N   0.19798433469762      6.84558456929309      3.30278387679947
  C   2.29947940333902      5.99094042722422      2.36551130654963
  O   3.84593881941700      3.88014089741469     -1.15891921082813
  C   4.93140190440022      3.55973292973141     -1.89083620745053
  N   5.11069168111853      3.86238010846872     -3.14119428929841
  C   6.29217347276143      3.42794268504445     -3.62202007699847
  N   7.22228226197588      2.76725547376183     -2.96313427829895
  H   3.31128970182794      2.48572983890113      0.25088113337895
  H   4.65837149485824      5.10437819244173      1.05882345763957
  H   4.08906557812589      3.86222900687529      2.17642745595159
  H   2.33550148963358      5.48808714672909      0.27618281137425
  H   1.65254267073469      3.20698064106936      2.15861075581047
  H   1.03116647824711      3.51415165317370      0.52279473851807
  H   -0.59470448961360      4.48816929208114      2.22130796453938
  H   -0.79757651624520      6.64379912256034      3.38296479160257
  H   2.80117029965309      5.65403821963315      3.27782696521988
  H   2.64540420230111      6.99756015368138      2.14387171595681
  H   6.49495642547562      3.64855119852150     -4.66231178527369
