25
Coordinates from ORCA-job 16898optt
  Br  1.16343838174288     -0.18271193268805     -0.07800566133314
  C   3.04137416225777     -0.11458029619062      0.02616873234292
  C   3.75384398639536     -1.26192544414075      0.34745904961850
  O   3.13212829133696     -2.41707773505936      0.69876242091086
  C   3.05374449313806     -3.42321054198734     -0.31279890778229
  C   4.40785634302507     -3.67086818288623     -0.97528455709703
  C   5.52725310256246     -3.64922065659798      0.02145068015897
  C   6.25499152689745     -4.72081586982232      0.34754954241151
  O   7.25688341781810     -4.67952509494917      1.23262661530548
  C   7.62310642329271     -3.46859460627345      1.83796906617315
  N   8.58490876618654     -3.44783761136502      2.64520079940801
  N   6.89281091552787     -2.33512770515890      1.52331270216369
  C   5.91986292840924     -2.41855190959635      0.69501962695618
  C   5.14884530185883     -1.17603384609070      0.38557115565238
  N   5.81737968917080     -0.05567081634772      0.15091439221233
  C   5.11717846686494      1.03499354425787     -0.13479336549332
  C   3.73082592152210      1.06114872010829     -0.21252242149251
  H   2.30213201131583     -3.13748531231646     -1.05407434319521
  H   2.71379591685471     -4.31128077820640      0.21686079605993
  H   4.58688948044495     -2.91033676739249     -1.73974136381929
  H   4.37467048985779     -4.63258960940109     -1.48970114982453
  H   6.11279448455882     -5.71144431933785     -0.06696646332261
  H   8.99317343167357     -4.37436388374277      2.74158852767815
  H   5.68614229229498      1.93853510363654     -0.31957524831470
  H   3.20296977499216      1.97257555154836     -0.45499062537746
