25
Coordinates from ORCA-job 16896optt
  Br  0.99141383950084     -0.37135017510999      0.20088749031594
  C   2.83883669095920     -0.24141731154916      0.01157018732424
  C   3.68492297000037     -1.28851696278443      0.05006626456171
  O   3.29550095947964     -2.56108203501322      0.19916558843769
  C   4.44739064458459     -3.41430500598324      0.33471176811552
  C   5.68075354984721     -2.58520211502554     -0.06863480046638
  C   6.22545935552619     -2.91514320305452     -1.44694101442376
  C   6.33818067403154     -4.28597582394145     -1.94342759903368
  O   5.31132612791638     -3.41877061264558     -2.39575505366239
  C   5.11890947642039     -1.19204105944342     -0.00943212538609
  C   5.75502842842944     -0.00956677432769      0.11248097702566
  N   5.02020550099756      1.15888465972621      0.16850349091797
  S   3.48754126688914      1.30286756627931     -0.47161229745863
  O   2.87613215043525      2.39010411373870      0.22181526019473
  O   3.57725725699814      1.34097174818854     -1.89362189401994
  C   7.16985732393518      0.09014800709247      0.25986479178636
  C   8.35781769017401      0.16629882967951      0.40213723511786
  H   4.27741373864834     -4.27073421692136     -0.31237889760764
  H   4.50196512927847     -3.73536700870578      1.37438579456920
  H   6.49166493547491     -2.70615076915158      0.65294310505092
  H   6.91619025637950     -2.17228568328879     -1.83752210472255
  H   6.00742705179361     -5.11333693121542     -1.32326754769568
  H   7.09706516238938     -4.52435276015214     -2.67936816160188
  H   5.43770642176436      2.01596132610216      0.50274258534320
  H   9.41303339814627      0.23836219750644      0.52468695731764
