23
Coordinates from ORCA-job 16899optt
  Br  1.06967040629132     -0.12329168398389     -0.19252059541624
  C   2.92996660076203     -0.23544855406114     -0.33420697702500
  C   3.59141104999362     -1.42620253085509     -0.31313050345636
  O   3.04047394707501     -2.62720701201036     -0.07943170834049
  C   3.80746012233649     -3.37456226891903      0.89737627439881
  C   5.24880931742179     -3.71215179897451      0.48322997852570
  C   5.92436463331496     -2.55200180774225     -0.26174221198726
  C   6.41683633972193     -2.98546813625802     -1.66229767350230
  O   6.40115906974660     -4.10706038571045     -2.06309935514464
  C   7.13219234400268     -1.80430042247023      0.34191643132907
  N   8.19922200442899     -2.18903092319374      0.84835369131614
  O   6.92970216142755     -0.41883881965073      0.17527823952842
  C   5.64238986946463     -0.26170441876394     -0.18491209372104
  O   5.09553308082606      0.92003174491003     -0.16110872632093
  C   3.66474596604787      1.02207057180307     -0.38225863069375
  O   3.24448249673190      2.12219066185137     -0.50342241473705
  C   4.99469065787154     -1.40765905038326     -0.41791603899389
  H   3.23935158892557     -4.28665481556833      1.05538143657191
  H   3.79777551370361     -2.78946620929419      1.81999890400558
  H   5.25562700268091     -4.58047310076722     -0.17433908106712
  H   5.80177447542729     -3.98037916884070      1.38541224243804
  H   6.78843154413329     -2.14666275622557     -2.28044383467967
  H   8.24192980766431     -3.20472911489179      0.90388264697204
