22
Coordinates from ORCA-job 16908optt
  Br  1.78991222554047      0.31587019914953     -0.94083420213348
  C   3.54287441565273     -0.17314590362363     -0.51040846631156
  C   3.90620944178146     -1.46306558768662     -0.33815203957370
  O   2.97493235146917     -2.42057515899357     -0.45834147757630
  C   3.14911248617004     -3.59729853265851      0.21298066587690
  C   4.34592825020078     -3.98210471484689      0.61337732527209
  C   5.50944276270445     -3.18659377632905      0.22094476739187
  N   6.62112876039308     -3.77231951727121      0.11497367751238
  C   7.81577672468963     -3.26165029197393     -0.39063339287371
  N   8.42998255643804     -3.73347008579117     -1.38304474242829
  C   8.37362412753259     -2.09206960750163      0.38294326758003
  O   9.49616670006527     -2.10211308696490      0.82243788557065
  C   7.49559097979202     -0.93937624598470      0.45131612886182
  C   6.18908945487726     -0.77749166245421      0.11653534689947
  N   5.76069710994129      0.53080006463701      0.00373472300877
  C   4.55050768290100      0.81349645797732     -0.30553688181708
  N   5.22080871519261     -1.81712996601521     -0.06052223716865
  H   2.22069722785898     -4.13505877345632      0.32629440052153
  H   4.52047136193519     -4.92652764492133      1.10244008232309
  H   7.91725096059195     -4.52062230312468     -1.78333782089926
  H   7.99928996592638     -0.00785264055978      0.66798813164431
  H   4.28150573834554      1.86229877839350     -0.39215514168088
