20
Coordinates from ORCA-job 16906optt
  Br  0.94128839586321      0.01708730707488      0.03698770565045
  C   2.80638431060955      0.02038762222440      0.04917473630027
  C   3.56913123507598      1.13131754196358      0.05540231549823
  O   3.21631893068690      2.44434003421913      0.05543323232832
  C   4.38943442346439      3.12754926847860      0.05815374715137
  C   5.48625077438060      2.33304577037392      0.05987192474051
  C   6.87104425671358      2.76921963610585      0.05988619866982
  N   7.21552725928834      4.02563230751802      0.05851709552004
  C   8.57225955053543      4.15162224572013      0.05675082542569
  C   9.26731561941373      2.98146937931233      0.05664255855891
  S   8.19082058548462      1.65778076608232      0.05898757517362
  C   4.98250063330147      0.97759607500745      0.05891228504886
  N   5.63465454001535     -0.15095632850765      0.05963524698129
  C   4.89512430390181     -1.30839269446480      0.05717870499936
  O   5.33269616232095     -2.43024077323165      0.05916775115683
  N   3.46816895528116     -1.15405032879831      0.05066355174440
  H   4.30835498959807      4.20194976679616      0.05833282253587
  H   9.01298911677921      5.13744594245428      0.05528888923669
  H   10.33506626320621      2.84032053878560      0.05516841181854
  H   2.95566969407939     -2.02512407711424      0.04684442146094
