22
Coordinates from ORCA-job 16907optt
  Br  1.08042713617512     -0.02943174703103     -0.26860332654370
  C   2.92587334244228      0.11860490806681     -0.09018057419023
  C   3.58989021217769      1.27252115612561     -0.20004631039817
  O   2.98033559055307      2.46071938122648     -0.49490083723240
  C   3.63651830778402      3.59457931780405      0.05545170260953
  C   5.09481855561760      3.69309296746684     -0.41121586386396
  C   5.80052438307984      2.39585845215989     -0.14905603609128
  N   7.11408879743532      2.34746912891873     -0.01352908998424
  C   7.65028469416311      1.14636083014826      0.21859016929570
  N   7.00015956266328     -0.00346470307950      0.33221895940620
  C   5.68122905059896      0.05171127539096      0.19787061984079
  C   4.89603975484688     -1.20412116506919      0.30132260331670
  N   5.33088522510195     -2.35681268104422      0.51433285282809
  O   3.53235521904687     -1.06621426354950      0.13006225559050
  C   5.02095565303033      1.24268799208302     -0.05069162022679
  C   3.56547890833387      3.56253086584587      1.53229369945056
  N   3.53784675059011      3.53742507451009      2.67652293906467
  H   3.06540793210843      4.45395825660806     -0.29041616644122
  H   5.60961306785783      4.50987450960949      0.09358683723923
  H   5.09672087942693      3.90060471313578     -1.48386810498829
  H   8.72742476967667      1.11058905082323      0.32686123271840
  H   6.34412220728983     -2.31454332014974      0.61839405859991
