26
Coordinates from ORCA-job 16903optt
  Br  2.08729504208609      0.24715767006802      0.77448908354930
  C   3.54022800268452      1.24560424692453      0.06003900583144
  C   3.38400137704546      2.63917202608217     -0.06989480518437
  O   2.15187728543286      3.16172457068282      0.19124174330400
  C   1.82288870898445      3.58322941807430      1.51305165050609
  C   1.89571207876421      5.13105294717303      1.62450473613567
  C   3.22507028920543      5.41000641892581      1.03060683189004
  N   3.35474777205651      5.45888411612310     -0.21769313664735
  C   4.58630655805824      4.88081082148121     -0.70583716720544
  C   5.77099101924704      5.43573174372724      0.08772428509003
  C   5.55364470845314      5.19104216590793      1.55619648446366
  O   6.40103397689198      5.03649012982810      2.37317041047429
  O   4.23764898902278      5.15359503169003      1.94433651280360
  C   4.48876136444335      3.35170713107318     -0.56447157503461
  C   5.61269274221471      2.61161520595814     -0.93389327567429
  C   5.63176280867231      1.24185276870764     -0.78358984539361
  N   4.60324554638156      0.56616784426261     -0.27359704545330
  H   0.80972386111793      3.23751401731047      1.70978890511516
  H   2.50141534243828      3.12312377079843      2.23417696323594
  H   1.80278366133362      5.43079564574423      2.66653048900544
  H   1.12177116661509      5.58436742226140      1.01095780229786
  H   4.70668048320162      5.11894435818723     -1.76284837904036
  H   5.81800002866316      6.51724764797676     -0.06654835612052
  H   6.73424796652101      5.01174775323672     -0.18447725196013
  H   6.47835924705793      3.11477081248683     -1.34575710617732
  H   6.49710997340669      0.65764431530805     -1.07120695981124
