24
Coordinates from ORCA-job 16905optt
  Br  0.97987259456349      0.35517633860906      0.49380503658926
  C   2.84741297578277      0.28008473641628      0.29407655633748
  C   3.45005232435410     -0.88124081854784     -0.02991979103016
  O   2.70801864942209     -1.95598560280835     -0.41729591120860
  C   2.20383160802164     -2.89372755054917      0.54731927856515
  C   2.83980419035218     -4.27395958454771      0.27154719930755
  C   4.23130229606792     -3.92375960981465     -0.10590239284205
  N   4.76414573792551     -3.96479461536999     -1.24373590064021
  C   5.90607396459747     -3.04409081411751     -1.18947861378980
  C   5.66287509303680     -2.26013806663595      0.11701144612291
  O   4.84255027781233     -3.15488624185191      0.85688653712779
  C   4.92541209929542     -0.93289141841210     -0.02748412090999
  N   5.69532849459228      0.09003496891814     -0.05933984560365
  C   5.23332414188680      1.39619463382902     -0.16283195070987
  N   5.89036403641221      2.36709897560408     -0.62498174541209
  S   3.64459074732521      1.79259434861578      0.53957336072594
  H   1.12169218049791     -2.92937497773907      0.43258142332545
  H   2.45219179083746     -2.55196687444851      1.55124342119965
  H   2.36054432565858     -4.78448180352990     -0.55949906338851
  H   2.78621669342673     -4.89088011460483      1.16880641720266
  H   5.91245061808259     -2.40431627064546     -2.07037654578583
  H   6.84773785428776     -3.59541934283142     -1.15538576440436
  H   6.57490900046496     -2.05364033362294      0.67061929545112
  H   6.82429830529575      2.05137003808499     -0.88923832622984
