23
Coordinates from ORCA-job 16912optt
  Br  1.17539640151705      0.23767619687490      0.59936981155926
  C   3.02187361093395      0.27983450629451      0.37974540487633
  C   3.72687734840209      1.42062307508032      0.22906324520954
  O   3.26054472808452      2.67492041111729      0.23213774670026
  C   4.30961789466816      3.55966778208627     -0.22356610367735
  C   5.64913414445272      2.80721044535989     -0.04215240758284
  C   6.40104919783863      3.25844221555096      1.17533694727799
  N   7.54483844955403      3.82675165935988      1.09284333226525
  S   8.07335772887818      4.25529818371023      2.63650932539300
  C   6.63406248264025      3.62211909857738      3.45832250184130
  N   6.28420239149093      3.57529579740273      4.66952676612920
  N   5.85251796504666      3.12138704035322      2.42318581714750
  C   5.14772113097944      1.38726597106727      0.06119057273844
  N   5.83610345102087      0.30543831488193      0.04013981199981
  N   5.13677538812984     -0.81744901335822      0.17706178915405
  C   3.75898210512543     -0.98108266816226      0.35163864888565
  O   3.28812039663577     -2.08931014478814      0.45665877146671
  H   4.24653385480548      4.47293016195634      0.36228841542399
  H   4.12585023241046      3.78135021112854     -1.27434401714396
  H   6.31056059496115      2.95160811423102     -0.89332259497135
  H   6.97097298445263      3.98293817342783      5.29453365899079
  H   4.97141058609717      2.67318021732223      2.62987305437468
  H   5.67549693187450     -1.67209574947416      0.15295950194176
