28
Coordinates from ORCA-job 16914optt
  Br  1.10418103814380     -0.00447057530227     -0.27390914309085
  C   2.91639027540768     -0.11484327767502      0.22418196423452
  C   3.62566124652754      1.08757956687220      0.38773651321797
  O   3.10178779346217      2.27439712857709      0.01176268943449
  C   4.04762527289041      3.35262329143948     -0.03658333693940
  C   5.43058768606050      2.94413071334237     -0.55680790012780
  C   6.02895192994364      1.99687117481165      0.47221031355770
  O   7.11507507735801      1.17610833718693     -0.00226814695630
  C   6.99419508405833     -0.13081664589466      0.59864672224599
  C   7.19599048400144     -1.36621294503746     -0.30554352739293
  C   6.05554574077902     -2.36094567286921      0.11145026222223
  C   4.94601518304699     -1.40693596909496      0.51039387501085
  C   5.53460368852521     -0.22549133376748      0.85359510717550
  C   4.94609880767988      1.00077457538177      0.77670982377668
  C   3.56495971732694     -1.36908832105362      0.25429760171352
  C   2.87792482064176     -2.57000695854370     -0.09873548949120
  C   2.34230923054530     -3.60355758776941     -0.38621450059215
  H   4.13984188363822      3.77143119617007      0.97154898340376
  H   3.58888872195609      4.09794756105434     -0.68108083334754
  H   6.03662918042086      3.83694532703801     -0.70841947078973
  H   5.33248703387815      2.42351183653131     -1.51155824276166
  H   6.36212221927115      2.55599586579668      1.35470441409209
  H   7.62547584608946     -0.17104067320033      1.49310572608922
  H   8.18823226945352     -1.80841585517942     -0.23041443527802
  H   7.03153222124552     -1.05049018621041     -1.33726717946943
  H   6.37323194084815     -2.98716954288004      0.94871784176130
  H   5.76448213665851     -3.02474227243212     -0.70171719568102
  H   1.84917347014166     -4.51108875729181     -0.64054243601779
