18
Coordinates from ORCA-job 1691optt
  C   0.83575047590912     -0.87701180954483     -0.28922970517428
  C   2.35244036973859     -0.80270018126390     -0.23355312045679
  C   2.90414891012445     -1.70561000359943      0.86028992574506
  C   2.96787281091573     -1.12473758912596     -1.58780363909553
  O   2.60423947362557      0.58016780228397      0.09992728580910
  N   3.94728603644860      0.84127663616455      0.19769282980146
  C   4.17549031902645      2.05074695888840      0.47874312532123
  H   0.44957886310503     -0.19797429961433     -1.04979182882594
  H   0.40756412976453     -0.60078607506804      0.67463894678580
  H   0.52274453347342     -1.89214587707021     -0.53421468957413
  H   2.47540760749511     -1.43274989099628      1.82553964641463
  H   3.98790764039850     -1.61687064965002      0.91972436888944
  H   2.64941664307213     -2.74460010372795      0.64638771940135
  H   2.59041160878651     -0.43628296293626     -2.34498203945609
  H   2.70881995869204     -2.14292437515389     -1.88146817101767
  H   4.05277860633145     -1.03936937843043     -1.54491388128730
  H   5.21263124861000      2.34189227133954      0.57488967101528
  H   3.37651076448275      2.77467952750506      0.62012355570440
