21
Coordinates from ORCA-job 16911optt
  Br  0.88224586755344     -0.38252967075353      0.29222177663878
  C   2.73854653421824     -0.24285279811879      0.12497859957144
  C   3.51876019412533     -1.31769870751667     -0.00540126207409
  O   3.11397399303150     -2.61113955393785     -0.03064664426769
  C   4.21770079214118     -3.41423295453676     -0.47590750377899
  C   5.48122274562932     -2.64169462428744     -0.07002088089203
  C   6.65121071160180     -2.84814986259934     -0.95894509020734
  N   7.88466081478477     -3.05178207690329     -0.53545456618846
  N   8.53296936526248     -3.13238269271372     -1.67557579200233
  N   7.78764621386822     -2.99767851546282     -2.74179574182485
  N   6.58063755921240     -2.81623187154822     -2.30886895926243
  C   4.96104004168612     -1.21485170962608     -0.07130788362083
  N   5.69679198663158     -0.17964853858150     -0.10546804559499
  C   5.13892860567150      1.10256579620310     -0.10220985138163
  N   5.80104445180719      2.16382131003447     -0.25831951100644
  S   3.38676392042482      1.36697421397147      0.18028517567007
  H   4.17071268903872     -3.51883074335134     -1.56146745626151
  H   4.12912765477618     -4.38673359605576     -0.00061610681516
  H   5.77198352690268     -2.88272516364569      0.95543752179270
  H   9.52813776087636     -3.28773227362120     -1.73318260681903
  H   6.78889457075609      1.93553403305098     -0.36573517167519
