28
Coordinates from ORCA-job 16920optt
  Br  1.07958333137537     -0.23223242096042     -0.31655994773596
  C   2.96530899511922     -0.16527348199948     -0.13423068274034
  C   3.66838442974074     -1.37200212448229     -0.02300075422402
  O   2.96799645004120     -2.53217146536718     -0.04889846457008
  C   3.72857919671445     -3.68795632197471     -0.31277074450951
  C   4.94035555882086     -3.76222188352665      0.58817725811480
  C   5.85092475308860     -2.58324903629792      0.26268795557925
  C   5.05008846931433     -1.31393770092278      0.12173421187674
  C   5.64485843259479     -0.05523474733069      0.12862327815446
  C   4.85940953520418      1.07233418659498      0.00228651689220
  N   3.53175897062953      1.01173360991399     -0.12205308917744
  O   2.81936007136475     -4.73567310697006     -0.06386237249705
  C   2.99391331605485     -5.86662110234448     -0.75427570709497
  N   3.96273378447972     -6.07824515598983     -1.52548880064785
  C   3.99021271189504     -7.34166209202274     -2.22509520743521
  C   5.32852270765673     -8.02416027342486     -2.04097611017995
  O   5.49372990006625     -9.19889334027337     -2.19743581433786
  H   4.01617382015026     -3.70162676883984     -1.36835497771866
  H   5.44625326579621     -4.71352669814530      0.42976226562217
  H   4.58953602754139     -3.71704403629257      1.62100903876410
  H   6.38502241153824     -2.77265495862778     -0.67267944166922
  H   6.60975448537710     -2.45292385114308      1.03495088849386
  H   6.71850151190038      0.03455240488264      0.23813507588230
  H   5.29567645206872      2.06334555513368      0.00154816813450
  H   2.18226959786623     -6.56711848013766     -0.55000752994303
  H   3.88868716507749     -7.15645765638798     -3.30037790750122
  H   3.19695263906459     -8.03954494473471     -1.93460674890758
  H   6.16245200945868     -7.35153410832883     -1.76324035662440
