25
Coordinates from ORCA-job 16922optt
  Br  1.12479551861630     -0.20902300885662      0.26440412173188
  C   2.99572319545953     -0.17606781773200      0.16803576421264
  C   3.73214690767140     -1.31077755227651      0.10002504294072
  O   3.08843945922312     -2.51276396082291      0.12326496926125
  C   3.84537113338164     -3.63767234660549     -0.29890126191135
  C   5.18800600486480     -3.67332283002898      0.41504826631265
  C   5.99078384497241     -2.44556773689430      0.00272678305622
  C   5.15999644044097     -1.18720987416097      0.07611799899305
  C   5.73619530291762      0.04097567101002      0.11137543215607
  C   4.96958034282479      1.26579608946194      0.16621141974170
  O   5.40929444211243      2.39897917919076      0.18960525190923
  N   3.59054156443523      1.04638702914662      0.19797361236036
  C   2.99520649433694     -4.83799587407227     -0.02374748031599
  C   1.73324014640613     -4.85346479717328      0.49475124923864
  S   1.24322591162580     -6.46146423081047      0.57596665764924
  N   2.67642734583947     -7.02805439221049     -0.05632956605482
  N   3.48234923429986     -6.07637773296252     -0.31702879424725
  H   4.01571040373836     -3.56422172877078     -1.38162576154550
  H   5.70992734695935     -4.59362888328050      0.15679908636856
  H   5.00188531006940     -3.67810886271977      1.49196070723283
  H   6.33537503748258     -2.56890184939009     -1.02816957779922
  H   6.88065332745654     -2.32636438917373      0.62029893131979
  H   6.81215893617482      0.15289292446925      0.10036364014375
  H   3.01826110718046      1.87815382656715      0.24787904679119
  H   1.13870524151000     -4.00719685190403      0.79599446045438
