24
Coordinates from ORCA-job 16921optt
  Br  1.41110556116933      0.43266250004100      0.18544461767315
  C   3.24092396450144      0.10579041934317      0.07749678228711
  C   3.76715598039374     -1.13331988300067      0.03034753131093
  O   2.94860903178526     -2.21051210392594      0.10283162138356
  C   3.50888615853144     -3.45726193173667     -0.29915712344093
  C   4.85579973361744     -3.68323365863467      0.35602068966991
  C   5.82333133027306     -2.60641860753682     -0.12207548857660
  C   5.20186567066874     -1.23749229101038     -0.02877332315606
  C   5.95066447745710     -0.11282554538434     -0.01262000233953
  C   5.35123389353564      1.19300229571834      0.03448659212533
  O   3.98285471141335      1.21814675570009      0.07751207868157
  N   5.87610056962060      2.35656852880693      0.00294881344133
  C   7.22407641802690      2.55658275493685      0.07160471758839
  N   7.79903896189205      3.58457956483330     -0.51800668191110
  S   9.35814321233274      3.53426913260005     -0.13254062405239
  N   9.27426068403246      2.18030210745364      0.80087465515661
  N   8.07243269415678      1.75654185305474      0.82816626911460
  H   3.60362392921963     -3.47292746330798     -1.39098803222631
  H   2.77645755101391     -4.20392781857572     -0.00218974709628
  H   5.22872870715297     -4.67516488231196      0.10051778620410
  H   4.73516677760988     -3.63948474776171      1.44052289555096
  H   6.07524514605657     -2.79135749472908     -1.17103366560326
  H   6.75899458163865     -2.61848485429952      0.43679038003251
  H   7.02830025390021     -0.16603463027262     -0.03118074181763
