23
Coordinates from ORCA-job 16928optt
  Br  1.03461505137672      0.08732396075696      0.56097022464456
  C   2.89288414037556      0.06789278050353      0.31282898662442
  C   3.60160639494104      1.21733550261465      0.28420542769202
  O   2.97919199889044      2.41629310482618      0.44711100944371
  C   3.62356904144370      3.57019379085087      0.12125963893818
  C   4.89192105318571      3.60234234967469     -0.28007376476820
  C   5.64931911030821      2.36844442672760     -0.32719226493523
  C   5.03447077070985      1.22214086346106      0.02558248672235
  N   5.70999994105918     -0.01732350813950      0.16605119172466
  C   7.02469467048325     -0.03793510491969      0.61922397223264
  O   7.70967966854235     -1.02118975796429      0.67662092087111
  C   4.95632831351799     -1.18479442494172      0.03401397948568
  C   3.61364256427657     -1.15428840638676      0.10615561466286
  C   3.15500791099458     -2.58168453999629     -0.03898470920033
  O   2.03290671096369     -2.99692906061106     -0.01168737079610
  C   4.41149001267138     -3.39704280169428     -0.21451559641629
  C   5.45699420998388     -2.57542104933239     -0.17053649238456
  H   2.97765316508320      4.42580310386656      0.24216178863522
  H   5.34725531039911      4.54622117985540     -0.53587338943497
  H   6.68682737804257      2.38061110174508     -0.62765084711074
  H   7.36142051151345      0.95746681902943      0.93726465940052
  H   4.40021754381903     -4.46587153512358     -0.35276323894884
  H   6.50130452741849     -2.82058879480248     -0.25917222708269
