27
Coordinates from ORCA-job 16938optt
  Br  1.08632871104589     -0.12897822183132     -0.15058875593433
  C   2.96343229648927     -0.10023125261568      0.02811055797773
  C   3.64640276131315     -1.30043761196750      0.30823663317822
  O   2.94601968590649     -2.44269131731231      0.47137122150593
  C   3.33433666863707     -3.55843248868128     -0.33771690284007
  C   4.55224550961553     -4.32308077547718      0.15990335282064
  C   5.88666990892310     -3.61280079689953     -0.04449216689833
  C   5.99422057735660     -2.34336778869833      0.79381315696262
  C   7.34220806540480     -1.62400509357069      0.66980375255389
  N   8.52228122501084     -2.05840145095063      0.77253443310648
  N   7.06326228743390     -0.28908836415664      0.40550617990240
  C   5.71650080478150     -0.06706560058088      0.24340981846849
  C   5.01749253968732     -1.25948817465959      0.43044830997565
  C   5.05092236426991      1.11774985346230     -0.04378149507627
  C   3.65245161810995      1.08039909165633     -0.14046750953925
  C   5.79098398293026      2.32314892675191     -0.23396515418802
  N   6.42790846758830      3.26750092236491     -0.38103632152946
  H   3.49356216721511     -3.20678924752146     -1.36229442207175
  H   2.46108460825640     -4.20819578983475     -0.33003443155051
  H   4.56939399790058     -5.27303913489382     -0.38001471331115
  H   4.40849617441936     -4.56147765565783      1.21748165352748
  H   6.01856562143766     -3.35783528496200     -1.09984136893259
  H   6.70297800094275     -4.28660132014790      0.22549506902726
  H   5.85763881820630     -2.61125167008527      1.84865007093036
  H   8.53471959278949     -3.05498504688870      0.97066141288729
  H   7.78751182626309      0.40099596377259      0.27800092105445
  H   3.11338171806530      1.98944932938528     -0.36719330200717
