21
Coordinates from ORCA-job 16939optt
  Br  1.13468970223680     -0.03990847273805     -0.09668963627712
  C   2.99148171096509      0.13210657549443     -0.09289811908552
  C   3.63582807759123      1.31543944482204     -0.09171693782034
  O   2.90965906390877      2.47804921879257     -0.09250994933368
  C   3.56367861995377      3.68612039138610     -0.09245263082978
  C   2.68559156210449      4.79899200960347     -0.09345115055096
  C   1.96530567064024      5.75569984239972     -0.09426951912798
  C   4.89902407994524      3.74123777495812     -0.09138957722395
  C   5.87747133229440      4.85237713214805     -0.09129629519731
  O   5.70510209752849      6.04635957872422     -0.09199697437617
  C   7.17961989533448      4.10347716346017     -0.08977949041664
  N   7.04826248825420      2.81833173727325     -0.08910505833655
  C   5.69322839364373      2.52326017449345     -0.09005188968702
  C   5.07743819790080      1.32031913619045     -0.08999446113656
  C   5.69499137804824      0.01063832538711     -0.08859091146640
  N   5.04051922527348     -1.09773941485624     -0.08930082518663
  N   3.70831818681266     -1.04196199081225     -0.09171092124141
  H   1.34032363887106      6.61753083882391     -0.09490945081258
  H   8.14740658157588      4.58810407149162     -0.08932944366613
  H   6.77359267349952     -0.06629540216035     -0.08673524093809
  H   3.23046742361742     -1.92713813488183     -0.09182151728918
