26
Coordinates from ORCA-job 16934optt
  Br  0.41308906162228     -0.62097110710148     -0.36093641051725
  C   2.08567601912740      0.20200847802935     -0.07542314395561
  C   2.37531003789791      0.87155724671260      1.05962810283255
  O   1.53664018628076      0.92524862966912      2.10787030066012
  C   1.10360891742287      2.24230222918548      2.59558888548819
  C   1.26631594135371      3.20700760216670      1.46995919983044
  C   0.51554187983881      3.08468008855700      0.38180674998191
  C   1.06339906781147      3.32082199521171     -0.97548265966348
  C   1.82418192204066      4.48928681036510     -1.51576490076290
  N   2.51095149625111      3.31783948435776     -1.04527025572181
  C   3.14819983183072      2.37962241057519     -1.95084774249709
  C   3.84118438513357      1.25045206845965     -1.22203636522353
  S   5.03407032832751      1.63758090388476      0.00202478568661
  C   3.77584036091650      1.47908524863280      1.33701270373082
  O   4.03704041795425      1.87972278165840      2.42726891004022
  C   3.30438110807646      0.05164530025686     -0.87962231156087
  H   1.70519504839551      2.48942829023773      3.46648412763679
  H   0.06425228800778      2.08703855247275      2.87994230001366
  H   2.22139110139249      3.71584402102482      1.39649804714428
  H   -0.41560614212630      2.52639874850016      0.42979894667232
  H   0.55437720919770      2.74540266361090     -1.74614323699071
  H   1.95037161523736      5.37499987118217     -0.90470053814539
  H   1.75088211216638      4.66206700161226     -2.58618973623432
  H   2.44080154234168      1.95127024520106     -2.67257091787187
  H   3.91970962203819      2.91033913064204     -2.51808612226435
  H   3.96819464146317     -0.75067869510490     -0.57080871830870
