25
Coordinates from ORCA-job 16933optt
  Br  1.25371622985366     -0.13312070070692     -0.05442383259012
  C   3.12374919461378     -0.23114146977678     -0.26771621134472
  C   3.76533877998803     -1.46530538178021     -0.12282348716128
  O   3.05862539450170     -2.58522368652939      0.12371853438532
  C   3.72499635764369     -3.78889402414625     -0.27350457536667
  C   2.85712108262071     -4.91410072252918      0.05641694916795
  C   2.19121581535128     -5.87031098668359      0.32509992059039
  C   5.09377620611311     -3.91295339053990      0.40287699209661
  C   5.88420539716834     -5.09699130464844     -0.15479665883379
  C   6.74518589121769     -4.50503634252781     -1.26439310870717
  O   7.39377242801927     -5.11383006374790     -2.07586986171008
  N   6.65565203869738     -3.14541747129996     -1.15770881034318
  C   5.95335625703299     -2.69090920250434      0.02405037914369
  C   5.14809123287477     -1.44615520207824     -0.23043245032296
  N   5.81670528698575     -0.33008272427884     -0.52002175473136
  C   5.10280705255864      0.76928870800899     -0.67783201986784
  N   3.78023684596953      0.86677455520946     -0.54200983555263
  H   3.86890198325769     -3.74917390835611     -1.36148082099122
  H   1.58943707382923     -6.71507563904160      0.56417166717673
  H   4.93522223684321     -3.96827570508730      1.47876268178955
  H   5.26067508428523     -5.90238630317334     -0.54025335422310
  H   6.55447590291292     -5.52663409932768      0.59100407783768
  H   7.25668565113548     -2.53515391377134     -1.69057470984667
  H   6.65575356954175     -2.45539934934838      0.83126374550767
  H   5.63329700698410      1.67950832866508     -0.92752345610279
