28
Coordinates from ORCA-job 16935optt
  Br  0.47924759759238     -0.43147670970342      0.46018800941065
  C   1.90503277054635      0.82409917798156      0.60253362593067
  C   2.57469998110399      1.17932529849422     -0.51444441981839
  O   2.14406854770395      1.05581117703397     -1.79144302366248
  C   1.07587428196869      1.97507084691884     -2.16083859965070
  C   1.10586263169348      3.37935877932095     -1.51796470394284
  C   0.24181028252074      3.48297559062220     -0.24434350750711
  C   0.53275232335139      4.55352860530009      0.84446877925806
  C   0.49843890350443      3.91113928502822      2.25599372565450
  N   1.98649448379934      3.83786188078890      2.25709627704692
  C   1.99897449616110      4.90039612770932      1.18788803538210
  C   2.54967348271752      2.67386839854086      1.81253826938613
  N   1.88846987406243      1.57309130720322      1.73526296776854
  C   3.93092572332592      2.79117324982682      1.26273637794690
  N   4.85934274473004      3.36857924527537      1.89243566966778
  S   4.06542988461211      2.09627854449559     -0.36370506318076
  H   0.12593495218817      1.48263278653184     -1.93594308225286
  H   1.17800365449316      2.05192238294374     -3.24123382136535
  H   0.73435012961188      4.07864538555361     -2.26991537605811
  H   2.14056618260817      3.66741361160878     -1.33767258791904
  H   0.23890279868731      2.51035153515291      0.23803936501306
  H   -0.79430633071030      3.63550110901095     -0.55606755855443
  H   -0.10297351956055      5.42766880759644      0.71159822589884
  H   0.18070060516092      4.59508915183617      3.04091318355954
  H   0.00536328557463      2.94754410937209      2.35800107586526
  H   2.09979287134458      5.88118447455786      1.64891120561568
  H   2.76697813508532      4.77669471388855      0.42727953565483
  H   5.74958922612285      3.34327112711030      1.39668741485263
