24
Coordinates from ORCA-job 16942optt
  Br  1.30388480971177     -1.49146676621907      0.87232237311018
  C   3.06568945382572     -1.11246809636763      0.32958722246845
  C   3.89066050908580     -2.12927665867266     -0.04989495551675
  O   3.71627589810554     -3.46242656307855     -0.01355184880633
  C   4.86861147893275     -4.20663711764356      0.52064267688597
  C   4.45124585598746     -5.58796405912171      0.67142020963045
  C   4.15730720143031     -6.74160361797082      0.78311324169527
  C   6.10130932740546     -4.03411757913962     -0.42732460375963
  N   7.43262193033782     -4.18582612992298      0.18668040735782
  C   8.30510684868325     -2.98680767025395     -0.06718309855565
  C   7.27383294719878     -1.93606296493455     -0.38739890936423
  C   6.12544093836644     -2.59641451102362     -0.69033380613948
  N   5.12701776800594     -1.73679132824067     -0.44869544677980
  C   5.71173728685848     -0.51242836519289     -0.14682024457252
  C   4.75346095902800      0.47917665069953      0.18382949863417
  N   3.49692788997872      0.16580343112822      0.37466146730001
  N   7.04316488742550     -0.62442279620349     -0.10877140259859
  H   5.13195136912799     -3.77835727240873      1.49187585150962
  H   3.88026324647284     -7.76358058637638      0.88929109019100
  H   5.94920334747675     -4.67559467376128     -1.30004281571834
  H   7.88224032592533     -5.05336927935160     -0.06786629532972
  H   9.01229978197450     -3.16004203587805     -0.88349788612124
  H   8.86793905652331     -2.73475866089233      0.83071373290774
  H   5.05380688213150      1.50743665082642      0.34024354157159
