19
Coordinates from ORCA-job 16940optt
  Br  1.04781892019388     -0.26291469902676      0.04248196778107
  C   2.91664396487363     -0.24043091458156      0.06421761782897
  C   3.66232214620336     -1.35207255078065      0.07556038855433
  O   3.02849067951574     -2.56697071474290      0.07509737033491
  C   3.73905181594110     -3.74240289978748      0.07371061663654
  C   2.91252189229917     -4.89283106336000      0.06873532615454
  C   2.22399761764173     -5.87242981231867      0.06495847266608
  C   5.07388552779268     -3.72065325279048      0.07855900747717
  C   6.11732318846491     -4.78483783658298      0.07868333963849
  O   5.97623425627490     -5.96944817635939      0.07231749525635
  N   7.39823049447048     -4.11241874233049      0.08821571863138
  C   7.19513489772695     -2.84511261574408      0.09347005808828
  C   5.78246128864453     -2.46880619071552      0.08736819075161
  C   5.11571014490672     -1.30008169176105      0.08692234750654
  N   5.84018935632952     -0.09247037340509      0.09622371003735
  N   5.31624964145201      1.02468090734068      0.09004813044445
  S   3.65025487132515      1.34063402221750      0.06880374841265
  H   1.62311598525313     -6.75154638473402      0.06201725699529
  H   8.01036331069037     -2.13188701053702      0.10160923680401
