21
Coordinates from ORCA-job 16944optt
  Br  2.86424318380502     -0.10028159449959      2.66167554469430
  C   3.98536979665268      0.16409938798807      1.20161921815236
  C   4.43059140329929      1.35948674394494      0.80213314608628
  O   4.30689005101557      2.64304626393022      1.20356054109893
  C   5.05385892727023      3.53212736050169      0.27597000856302
  C   4.14198351589584      4.50445694865298     -0.30670015567364
  C   3.40242026383721      5.31318055313283     -0.78260860120821
  C   5.65730884808275      2.54650881848469     -0.71624150223850
  N   6.38751190560759      2.37530105813170     -1.78358056818147
  N   6.41941658172953      1.01579372720552     -2.04584116795819
  C   5.69962274991838      0.40856559482148     -1.12202482282461
  N   5.22741244676767      1.35708721070597     -0.29214353497953
  C   5.25607153000643     -0.90458896880857     -0.70742440114864
  N   5.47955413205908     -2.09825431155426     -1.17644610795944
  C   4.80328862057233     -2.94979287490956     -0.35753095882691
  C   4.14956587135295     -2.27019930439446      0.63359678756185
  N   4.42545532556187     -0.94268888871448      0.43016146215502
  H   5.81455756394990      4.03089010071479      0.87736537696434
  H   2.73914338641522      6.02804439541716     -1.20978150309656
  H   4.81852465486396     -4.01474612765710     -0.51754435709931
  H   3.53120924133646     -2.60103609309402      1.44778559591891
