25
Coordinates from ORCA-job 16957optt
  Br  1.06629700891057      0.03700205694060      0.00094130215007
  C   2.93148085431753      0.11291371090770      0.06291182074451
  C   3.61896027795216      1.28433995735557      0.09921106796106
  O   2.91968906965356      2.44451679976074      0.07115948353090
  C   3.62828387877149      3.61736403194086      0.46621516428549
  C   4.94121803511853      3.72985846455687     -0.27938391148963
  C   5.85399562021124      2.56725834754244      0.13427756548943
  C   6.42496151638477      2.78873964142556      1.46677026628646
  C   6.87859920587332      2.98227093967187      2.55771756467263
  C   5.06264807635738      1.27522735770668      0.10913101404968
  C   5.65177833076521      0.06193104104610      0.08896997879557
  O   6.94711173146142     -0.26620859104841      0.09156363161374
  C   6.98946376906762     -1.70787840816096      0.06203945787892
  N   8.07570817487406     -2.33142947091961      0.05959807782408
  N   5.70529465570194     -2.21300386641169      0.03890148024216
  C   4.92768491881112     -1.17075729705222      0.05446275970371
  N   3.58399661163611     -1.10408094802583      0.03882161090207
  H   3.80278151816485      3.58913771632900      1.54679095018419
  H   2.95911327638185      4.44269731108202      0.23652280539305
  H   5.42343229849214      4.68060553557144     -0.05650793596317
  H   4.74915414550979      3.68001729931236     -1.35292390610123
  H   6.68094956624666      2.46809345977290     -0.57305362236697
  H   7.29300481954004      3.14127856596835      3.52478223105101
  H   8.86375954786542     -1.69144052547419      0.08294976352641
  H   3.04363309193112     -1.95745312979817      0.01113137963585
