24
Coordinates from ORCA-job 16954optt
  Br  1.23430322498596      0.28993554511842      0.59353551972549
  C   3.10136584689326      0.27267691991115      0.37816900069553
  C   3.80765159699313      1.45381143191591      0.16518706356505
  O   3.17855996118486      2.62974518008329      0.10687007186907
  C   3.91145098688294      3.69543028707813     -0.49864096624616
  C   5.32462462846360      3.83865680488363      0.07551308188195
  C   5.28609104044155      4.20015789581815      1.49241914967081
  C   5.23275240180356      4.46252453402682      2.65843309490539
  C   6.04228811899724      2.51192324930615     -0.08376007298655
  N   7.30969025983275      2.45919981038611     -0.23802347819935
  C   7.93731602563982      1.20085973341879     -0.31036361969396
  N   9.17210969811976      1.03638252671846     -0.53513169865632
  N   7.14334165012399      0.07070515027390     -0.09766152007207
  C   5.79481198875358      0.09942990149939      0.05587530172023
  N   5.12608515707845     -1.03206671635840      0.24206422077023
  C   3.81097491854260     -0.92184052771845      0.40536653440694
  C   5.18890435940648      1.35930964085872      0.01729137264743
  H   3.32423199328530      4.59114939077665     -0.32002546109916
  H   3.97457968887534      3.50042930054890     -1.57297776694118
  H   5.86446323406365      4.60266583442613     -0.48693433340197
  H   5.18995950167043      4.70679656913233      3.69323016625182
  H   9.61673800261877      1.94344827097712     -0.64169894181974
  H   7.61469921430274     -0.82309474031511     -0.09137075191785
  H   3.26800650104020     -1.84723599276623      0.56063403292434
