24
Coordinates from ORCA-job 16950optt
  Br  1.01053488647552     -0.47288809829382      0.19215476403485
  C   2.87166738031268     -0.22465584151645      0.11501420942105
  C   3.70033707065168     -1.29694980486971      0.23990377631035
  O   3.15468055931938     -2.51398121404060      0.45854752955312
  C   3.24727026252194     -3.44010905462565     -0.63939305401351
  C   4.45478769180092     -4.34454044187630     -0.50180259697622
  C   5.78808870505408     -3.60940925736764     -0.55249501666321
  C   5.93845623854335     -2.48205882903569      0.48650848040832
  C   5.14475821372722     -1.22819485955139      0.20140264858767
  C   5.77539532646673     -0.06034742882520     -0.02613996897754
  S   5.03888886174850      1.46547652150410     -0.26313558699222
  C   3.28724607233145      1.15834774969573     -0.09312792061183
  O   2.55367319296597      2.10574417144342     -0.18579981526181
  C   6.11179298777393     -3.08284326359334     -1.93232922956809
  O   5.47541958835763     -3.32221634694387     -2.91952440170313
  H   3.26655602788827     -2.88522493227691     -1.57993651474511
  H   2.32819538602987     -4.02263568978020     -0.60405520057084
  H   4.41936119008615     -5.07924410674321     -1.30839661358410
  H   4.38036714446977     -4.88256088587595      0.44567318593354
  H   6.58590328174264     -4.33215097534257     -0.33710001072372
  H   6.99106795132346     -2.20243470242336      0.55515792604450
  H   5.64618502585574     -2.87745204143394      1.46209668659614
  H   6.85805900661500     -0.01585297289372     -0.04539152475392
  H   7.01830794793804     -2.44581769533373     -1.98783175174429
