30
Coordinates from ORCA-job 16966optt
  Br  1.36261904419084     -1.56753452815881      0.72097509117155
  C   2.41196915645551     -0.20532178625592     -0.03885801919779
  C   2.45545601532781      1.05169781295530      0.47240577856583
  O   1.72539483980750      1.46276817516873      1.51295021332350
  C   0.29362441456518      1.56955528653927      1.33865033002444
  C   -0.09493556674817      2.98065786277503      0.95235571268286
  C   0.32474747397463      3.40840587104948     -0.47248590873663
  C   1.25081868921225      4.63644052864240     -0.54313692782496
  C   2.74231957541237      4.33347237470510     -0.67701914062181
  C   3.27051477189191      3.36117700533489      0.40400958808150
  C   4.57202060549110      3.78536339765426      0.95055406589169
  N   5.55097582374649      4.17881727746346      1.39664747025346
  N   3.31803955268462      1.97498345142968     -0.06724087474290
  C   4.21175936216177      1.63104156532053     -1.13949941342057
  N   5.07996907920220      2.41028197854191     -1.63363871624758
  N   4.06903153547193      0.35876343689493     -1.67631129825673
  C   3.24716180912178     -0.48027004872670     -1.16065404715065
  H   -0.12760378025709      1.28663907319511      2.30117765918648
  H   -0.03315415936365      0.84842085798090      0.58927410316666
  H   0.31333774258080      3.66781859549883      1.69818243173016
  H   -1.18055170843002      3.04431238085164      1.05337891594526
  H   -0.57922220374868      3.63258622613899     -1.03781018918928
  H   0.78887080341800      2.56766425499670     -0.99795678683358
  H   0.97519378247788      5.24898764628286     -1.40277347895906
  H   1.08283805176599      5.26202471940349      0.33789244575734
  H   2.95009080833343      3.89821021285465     -1.65562740207216
  H   3.30499180752614      5.26612695016259     -0.62333664106913
  H   2.59616633387906      3.37661516672971      1.25723957070622
  H   5.16099883552660      3.31471455463253     -1.18732937318679
  H   3.18655750432176     -1.46642030006159     -1.61501515897732
