27
Coordinates from ORCA-job 16972optt
  Br  1.25765057235603      0.39080045088231     -0.54857873787813
  C   3.11317019018881      0.17930747263991     -0.21983850033277
  C   3.68337167544034     -1.08719369184546     -0.32279645972931
  O   2.94733490256286     -2.18025083861895     -0.63741649813671
  C   2.48161410020491     -3.05635240786231      0.41430377854760
  C   2.20677933167078     -2.32076689789064      1.71845078090318
  C   1.62610110841665     -3.23020997595030      2.81009466925555
  C   0.46172871362627     -3.99576460147141      2.36752757703956
  C   -0.48557535438171     -4.61737973897538      1.97831523385912
  C   3.48247003503977     -4.18361143529925      0.56829662424280
  O   4.74266006405619     -3.63338117640843      0.97084142166490
  C   5.58061371908803     -3.38003432811093     -0.06809742241693
  N   5.81567270728805     -2.25093559570641     -0.55511917053854
  C   5.08538976478286     -1.11689992684902     -0.21115781347075
  N   5.78139739226990     -0.02521720507286      0.09267261216282
  C   5.10293474134482      1.09598571750550      0.25505366077710
  N   3.79558545565976      1.26072293069598      0.07792626113693
  H   1.54784565803791     -3.46884863179915      0.02878972771477
  H   1.50594282705947     -1.51199087265974      1.51439188656201
  H   3.13056481201861     -1.88155973831872      2.09787287606045
  H   1.33991345156274     -2.61228059632710      3.66291938689147
  H   2.38829993495357     -3.92084304434635      3.17705065623787
  H   -1.33379974212775     -5.16730078303261      1.64606724262271
  H   3.59141024140747     -4.71893756109312     -0.37797618662184
  H   3.16879999078376     -4.88925233570248      1.33614513790910
  H   6.10163890886241     -4.25580780160208     -0.45287857984414
  H   5.66848479782745      1.97700261321901      0.53413983538118
