27
Coordinates from ORCA-job 16975optt
  Br  1.15207631312549     -0.11711290121884     -0.24511464767752
  C   3.02169323500202     -0.11378687882346     -0.14978904393694
  C   3.72552166848981     -1.26033729858986     -0.04710648316094
  O   3.09564572028723     -2.46938835848256      0.05166267962398
  C   3.85261076547427     -3.56102837984660     -0.45287184703607
  C   3.01403237730513     -4.80285370215578     -0.18683546140401
  C   3.64713870532608     -6.01142910408838     -0.70246686497863
  C   4.18692950432257     -6.98917413792327     -1.13337739655938
  C   5.20015502905714     -3.60499406607095      0.24609350567351
  N   5.85727951484131     -2.32824553859066      0.07283938392083
  C   5.15973935567872     -1.16849856885478      0.01480843869615
  C   5.77623506037511      0.06778525991355     -0.01138363077483
  C   7.18908782278573      0.14010542444970      0.05532940880563
  C   8.39009505594284      0.17381325640430      0.11799961624173
  C   5.00838734622542      1.29942370722371     -0.10457162704491
  N   5.41751411154277      2.50720544169622     -0.13852497178925
  N   3.62602843501857      1.09921767962156     -0.16510134375822
  H   4.00544946134945     -3.42774183524903     -1.52960106318987
  H   2.03555052462238     -4.66508492029414     -0.64998596195124
  H   2.85158647098443     -4.89264729859656      0.89002533241933
  H   4.65239590954919     -7.86533125200296     -1.51768143097675
  H   5.81316064754506     -4.39124966084619     -0.19311480301851
  H   5.04022198323574     -3.83863384396752      1.30541863631431
  H   6.85648460899774     -2.25600954763168      0.18860585026588
  H   9.45143622339072      0.22355947350521      0.16841249871798
  H   6.43086877708400      2.54479925473354     -0.08827277606672
  H   3.07167537244102      1.93963779568547     -0.23739599735553
