31
Coordinates from ORCA-job 16977optt
  Br  1.53255096341785     -4.47287396797651     -0.05835725922332
  C   3.24324552960882     -3.93022001953948     -0.61371876241926
  C   3.99429995709386     -4.72334640733367     -1.39019437770939
  O   5.15287000711090     -4.22042623109109     -1.90949525847886
  C   5.86026959193017     -3.38016476828408     -1.10347208403314
  C   5.33809181820725     -2.81795288617589     -0.01663259930530
  C   6.20730649984012     -2.44861614652384      1.15945781770861
  C   7.26252058387931     -3.54210091241478      1.41141719731579
  C   6.79083341340180     -4.93495746177376      1.91122439150749
  N   5.47227924533860     -5.39254837011538      1.48660555696072
  C   5.30569315083819     -6.13788346164646      0.49110320676132
  C   6.26823974497818     -6.56631691736509     -0.61853503707914
  C   5.32997143266966     -6.83717003615668     -1.81896319664046
  C   3.97591627581196     -6.25455342809855     -1.35205178368864
  N   3.96847160573701     -6.52922005137570      0.10058104982135
  C   3.86644090912702     -2.79116642590666      0.09714756025329
  N   3.30052070679674     -1.95593475076002      0.86712354503858
  H   6.90128263546502     -3.35015179779670     -1.39204955613930
  H   5.55404140172686     -2.32015593058608      2.02269428343383
  H   6.71628062194867     -1.49379875575889      1.01046931675509
  H   7.97257352654735     -3.18014867472259      2.15832392267803
  H   7.84428471114668     -3.67500111611176      0.49800580348339
  H   6.74037937797240     -4.89658243213425      2.99986714942921
  H   7.57385779374185     -5.65746560637755      1.65384366621124
  H   6.81813709939584     -7.45986881770127     -0.31841359227554
  H   6.99962470957879     -5.78450755980729     -0.82380014232375
  H   5.19543626087445     -7.90877328451004     -1.96621264335350
  H   5.69667607336842     -6.40764867303793     -2.74751130281430
  H   3.10828843139612     -6.69447559324404     -1.83809842297166
  H   3.80667510549815     -7.51557753845044      0.28523992910679
  H   2.28894081555182     -2.08339197722344      0.87140162199083
