28
Coordinates from ORCA-job 16973optt
  Br  0.58359812810982      0.81592501564584     -2.42498854849049
  C   1.77842693686337      0.89019027596500     -0.98082993335059
  C   2.77383617557656      1.79089082575712     -0.90901528426148
  O   2.80598066117821      2.95854151239000     -1.58105844410934
  C   2.66479012974736      4.05416360166383     -0.64553328983033
  C   1.22352250312417      4.50689218130876     -0.38504153277638
  C   0.12531776132993      3.43922350966593     -0.17848957185278
  C   0.20257886928597      2.45780910958310      1.02214961169506
  C   -0.58105113712418      1.13850485698703      0.74750356916373
  N   0.20347174944892     -0.11812205238548      0.55971694785020
  C   1.54446121687450      0.07434269982488      0.20071065394618
  C   2.59356658549000     -0.15617110663784      0.99821205303669
  O   3.82756994085611      0.35265435315768      0.72431813947010
  C   3.94094654121965      1.47387321602195     -0.04220268624128
  O   4.96454726651933      2.09064620223098     -0.05467887041415
  C   -1.17127924059587      4.12609421771413     -0.11350973349478
  N   -2.18625360192637      4.65361162828812     -0.03589958357105
  H   3.21352628643151      4.88279329245619     -1.08818049458001
  H   3.17099420432366      3.78955108226002      0.28313555900713
  H   0.89520318344586      5.11203071395724     -1.23185167882474
  H   1.25811984929227      5.17655130086087      0.47880953804893
  H   0.08473062658926      2.86192047830705     -1.09917482305303
  H   -0.22315849979306      2.94982885014399      1.89674373491630
  H   1.24272900579978      2.24823290968157      1.27060922386639
  H   -1.20549952153155      1.28305737054956     -0.13652992057297
  H   -1.26237343471791      0.94211071640861      1.57309775882549
  H   0.13140119685706     -0.71349213407346      1.37228774030848
  H   2.55329661732563     -0.68765462773269      1.93768986528874
