23
Coordinates from ORCA-job 16988optt
  Br  4.27179954343423     -1.29351653217887      2.71413432981785
  C   4.67358914021462     -0.57309105236850      1.03589431677956
  C   5.71916698840442      0.22379413129160      0.74504890028943
  O   5.70775656301495      0.65949982587701     -0.57269814822522
  C   5.83148369225285     -0.51566271381526     -1.31913439722948
  C   7.02106913791503     -0.72057462589821     -1.89806178231571
  C   7.79909140729397     -1.93931283738915     -1.81186524172111
  C   9.02643680920388     -1.66787811917080     -1.34226833417115
  C   9.70391088798752     -2.44802304806260     -0.27478620528322
  O   10.01809554802513     -3.60962819649215     -0.34001432151136
  C   9.93087711298933     -1.65042248606386      0.97818061729574
  C   9.19319046576512     -0.63311594502727      1.45182027256880
  N   8.06675310075429     -0.10803291693450      0.80842244866972
  C   6.99143583922887      0.05858869408210      1.46477945883543
  C   4.71985358870282     -1.45045841077511     -1.08690029589708
  O   4.42139022192286     -2.41497474206186     -1.70199241881670
  O   3.92093586331240     -1.05435057405723      0.02413708055359
  H   7.61253871675993      0.18538974893273     -1.95613633037385
  H   7.32448309924261     -2.90597754104198     -1.69488785353453
  H   9.38548890407902     -0.64794046261609     -1.41855495814763
  H   10.72410711591171     -2.03555162085171      1.60721382388697
  H   9.44964660152160     -0.21197287573773      2.42319939347083
  H   6.91389965206270     -0.13078769964057      2.53846964505910
