25
Coordinates from ORCA-job 16989optt
  Br  2.33576531069758     -0.79164839128933     -1.87506833718340
  C   2.28997257282306      0.53511464923592     -0.55727261856592
  C   2.84932904567846      1.75152971484040     -0.70247073783851
  O   3.16197787575673      2.28317614501103     -1.94286211133357
  C   1.91513476525485      2.78273346658953     -2.34853870036694
  C   1.39042761039629      3.83904442693882     -1.72762078616855
  C   -0.02014289322785      3.84042351769807     -1.37014118462376
  C   -0.33281234917613      4.15750891741299     -0.10563523012686
  C   -1.55106984627709      3.65346067762973      0.56574681890250
  O   -2.59949374863408      3.47244753041841     -0.00435049767143
  C   -1.38821012130711      3.33749748846130      2.03198116228905
  C   -0.70083227641705      2.31590876840961      2.54767297416647
  N   -0.09140156299071      1.28135072368213      1.83020339087225
  C   1.05813078619655      1.34068803846357      1.30603350953974
  N   1.55919277662625      0.26337562409576      0.57918910983703
  C   2.03318086453394      2.44920484628165      1.31733261796732
  N   2.85514188587004      2.63098362132977      0.35567933253778
  H   1.35294220686454      2.09883411467586     -2.97693801186845
  H   2.05067661935168      4.42928897202249     -1.10390327176281
  H   -0.74585173928620      3.32608346733387     -1.99289281760871
  H   0.42341216644566      4.59676969271726      0.53542609067426
  H   -1.95876132279945      3.96115644366161      2.71022027216162
  H   -0.73794516767665      2.15215640559518      3.62141148449506
  H   1.02947230246338     -0.59657355877902      0.61849821728149
  H   2.00876423883331      3.15248469756334      2.14429932439434
