25
Coordinates from ORCA-job 16986optt
  Br  2.29354549379133      1.14518430416891      3.29534289396780
  C   2.89781041535411      0.32662526203245      1.71202171886366
  C   2.01363196057054     -0.32585542659722      0.92189405112816
  O   0.68824333287949     -0.26389572812095      1.23745503156140
  C   -0.00404756629788     -1.39751696291894      0.97006504992101
  C   0.46895524883662     -2.62124172010239      1.20348372464282
  C   -0.09508387561816     -3.68246011165915      0.37983171003873
  C   -0.20219337867312     -3.39916503495432     -0.93056048759395
  C   0.39152043966796     -2.21057440767912     -1.63007959689606
  O   -0.11802189437342     -1.88549431406446     -2.68374256897841
  C   1.73751368385316     -1.63022269114132     -1.31144431311750
  C   2.42516187645263     -0.95984420298308     -0.34108088257307
  N   3.77667875682936     -0.71490563815386     -0.60841807366994
  C   4.65847028141699     -0.05511704495124      0.18676852160959
  C   4.27653136449053      0.46703914631274      1.36603599142337
  C   -0.48381490282240     -4.93916945027418      0.93625393112038
  C   -0.79632733702934     -5.98895543632435      1.42435327544391
  H   -0.95690831274924     -1.21169399353070      0.49068839630991
  H   1.34444662513057     -2.79082203140871      1.81943136428956
  H   -0.70552714098228     -4.07791300555737     -1.60940439977359
  H   2.30633575269433     -1.70701259806305     -2.23603680745907
  H   4.11976962384328     -1.09284448089739     -1.47668052716713
  H   5.66784859253103      0.01339020735772     -0.19196602149717
  H   4.96528322186910      0.98500555562410      2.01204764591807
  H   -1.07982226166519     -6.92154019611411      1.85074037248752
