25
Coordinates from ORCA-job 16987optt
  Br  2.49039887503555     -1.53992151132324      1.92187376277285
  C   2.80421135348965     -0.29591223059191      0.57106665765429
  C   2.38959453001165      0.98040728674005      0.68093970214445
  O   1.66525010818975      1.36720439638925      1.78971967073225
  C   0.37975655893980      1.59196610233711      1.35671744446083
  C   -0.29733218176398      2.72286907821239      1.56310210187218
  C   -0.97615410837401      3.11906886627884      0.34020700763299
  C   -0.61787573119663      4.30803330626459     -0.19061547755913
  C   0.22781030904254      4.04634851173317     -1.39526040528803
  O   -0.05857011316497      3.56295252949093     -2.45301849813938
  C   1.63020591474908      4.28083321253663     -0.85396793907350
  C   2.49206211084349      3.40782615615367     -0.33130085465936
  C   2.59320803948573      1.91810744913241     -0.43001562451095
  N   3.09315105422190      1.48866335129090     -1.53927312033218
  N   3.43328568836557      0.20723973826874     -1.64651896333762
  C   3.46273602587384     -0.76317615793539     -0.64999681778354
  N   3.94295314347136     -1.93308551749037     -0.76756813402013
  H   0.02984099139949      0.85374066726214      0.64102075874315
  H   0.08450879461458      3.47892910167964      2.23686875791844
  H   -1.26759795853194      2.31952540724815     -0.33394737217357
  H   -0.22448160410034      5.05814930893422      0.48697371455168
  H   1.85241141315242      5.33208003238786     -0.69036781027302
  H   3.35000610577492      3.83735956789545      0.18081633859143
  H   3.81998711676198     -0.03107223998850     -2.54738257072176
  H   4.34363356370853     -2.10013641290677     -1.68807232920237
