26
Coordinates from ORCA-job 16984optt
  Br  0.97587311176894     -0.08988199871683     -0.27596603365431
  C   2.84956535357419     -0.09386340105929     -0.17495249987947
  C   3.55627339905539      1.07997923844850      0.00494951727980
  O   2.89636329933747      2.25207961141511      0.16701105459158
  C   2.98221865982060      3.16804461451963     -0.93501032441251
  C   4.20746525779845      4.05582071034268     -0.85055316203952
  C   5.53675141642526      3.31174049920375     -0.92202028595833
  C   5.73864898388960      2.31981276130610      0.22695309788624
  C   7.20696640793948      2.01439673545097      0.47628717804308
  O   8.10495923360948      2.58036738269787     -0.07935611529509
  C   4.96913111627541      1.03176606673643      0.04462863554444
  N   5.65579399636782     -0.08728396522380     -0.09294783454083
  C   4.97570690475267     -1.22030790344788     -0.25341143876568
  C   3.57237765030657     -1.27247915394769     -0.29608640740177
  S   3.04413479070464     -2.89055773403543     -0.52295115050268
  C   4.72007835518848     -3.36810412926293     -0.54015996428074
  N   5.59794221452592     -2.44458065116102     -0.39616113233503
  H   2.07048382963546      3.76156353200201     -0.88382304815354
  H   2.96889045669518      2.59571258663686     -1.86824032734191
  H   4.15711324692987      4.62384761020244      0.08282480195173
  H   4.14948267817396      4.78050753665751     -1.66656012845825
  H   6.35851119932263      4.02701035807129     -0.88858873146917
  H   5.62882562862516      2.77955565674399     -1.87296762727309
  H   5.37536283530898      2.78624020858398      1.15490808570142
  H   7.40226050383940      1.24817043297577      1.24396133359856
  H   4.96981947012896     -4.41255660514002     -0.66976749283492
