26
Coordinates from ORCA-job 16982optt
  Br  2.37742916009410     -0.68434169421407     -0.02744205172040
  C   3.28474458142051      0.95624345634165     -0.20115346628970
  C   2.62429771157568      2.10709936691599     -0.45555851407030
  O   3.34548091608308      3.25325665014695     -0.57440406098285
  C   4.59632587764542      3.38631266263561     -0.03233039222940
  C   5.01005155227350      4.60018289854949      0.35708681162143
  C   4.21964985176237      5.82665341005676      0.39526731277409
  C   2.90618702028420      5.97069065823860      0.59292466538568
  C   1.97456922976293      4.83846373816978      0.82971826194504
  N   2.08546046275844      4.10833286563188      1.85366689232180
  N   1.00565209281388      4.66570124079117     -0.18206500589225
  C   0.55191959757363      3.45923649364902     -0.67207815526853
  C   1.21526542494541      2.28734520054779     -0.72207073454350
  C   5.37354663474754      2.14970239666949      0.02328886287620
  C   4.71347731751369      0.97214253172575     -0.05757723926440
  C   6.78020200728399      2.21297600361402      0.22800059010808
  C   7.96512398634880      2.28011259546317      0.40193053757510
  H   6.05074223666726      4.67345658680287      0.64372054804703
  H   4.79465967677099      6.74005747087678      0.28227714371859
  H   2.47504715116994      6.96644076441286      0.58067883015450
  H   1.38066860838590      3.36968574767693      1.86449831225296
  H   0.71437963643623      5.49663343528443     -0.67195028423627
  H   -0.46326177379656      3.48829342757387     -1.05247071791502
  H   0.66558622341654      1.41230574544764     -1.03576463855107
  H   5.25017493383702      0.03682366810434      0.01847357451512
  H   9.01661988222549      2.33219267888716      0.55433291766804
