22
Coordinates from ORCA-job 16981optt
  Br  1.15254586847572     -0.20193345107257      0.14382179656418
  C   3.01791085835452     -0.13324533832491      0.03668023320408
  C   3.75754134150753     -1.25925328441981     -0.01775676889797
  O   3.30943303115888     -2.51632846474300      0.03832305136579
  C   4.38126121313904     -3.39908855368594     -0.32956574271053
  C   4.28540908422064     -3.75660584210842     -1.74001447832191
  C   4.22438747260112     -4.03650342673991     -2.89985358271071
  C   5.64988183573922     -2.56115329518036      0.00857372253620
  C   6.78157831606823     -2.83523667597127     -0.88003355561654
  N   7.68698128709105     -3.08983521586835     -1.53182491465620
  N   5.11603498554656     -1.21817266118134     -0.10916588541077
  C   5.84689072083805     -0.01402897930331      0.08660209153201
  N   7.09247106289255      0.04123862265222      0.30194449184036
  N   5.08199891911063      1.13732808454517      0.00805344120358
  C   3.78908696833054      1.08682582223847     -0.00834475367707
  C   3.07973589342275      2.33565279552207     -0.08093667349729
  C   2.47293722048760      3.36494986512964     -0.14667599783071
  H   4.30905770854491     -4.28107880220815      0.30262934852007
  H   4.17654113267020     -4.28776441541497     -3.93377594383904
  H   5.97487444131033     -2.75421638058391      1.03702250570295
  H   7.55326601830908     -0.86216216626344      0.33284755499341
  H   1.94217462018076      4.28561176298211     -0.20754994029387
