24
Coordinates from ORCA-job 16985optt
  Br  1.53194726529565      0.82312912907635      2.74426979556365
  C   2.39690520628606      0.78974355343320      1.06771655725826
  C   3.26762660184792      1.77252741027993      0.74199082497644
  O   3.37449089345724      2.89713503378605      1.46616771912488
  C   2.70183563667500      4.04157150186728      0.88555832537238
  C   1.23577475575619      3.79335213382329      0.51409303577808
  C   1.03337331748105      3.17577904050595     -0.84183242338012
  C   0.39063119558516      2.04835733362177     -1.13189384164220
  C   -0.20867013434076      1.14408803998107     -0.10039949414452
  O   -1.06401172397738      1.49644176038624      0.66472859499953
  C   0.40944217217992     -0.26647912804544     -0.02976382090767
  C   1.90260137391617     -0.05461329447517     -0.00007058561899
  N   2.56380455548548     -0.37304114706478     -1.05539070673779
  C   3.86306514183728      0.01695178214830     -1.27248244594743
  O   4.67526985418857     -0.56790419835733     -1.91704879699228
  S   4.28619864895570      1.68658895742957     -0.66173979562585
  H   3.27265420485970      4.37707723560405      0.01460351246412
  H   2.77637302324075      4.79497623252309      1.66478743177385
  H   0.75966716342719      4.77904405890652      0.50139532315944
  H   0.74123358722781      3.22195702802021      1.29949598087747
  H   1.48875210415396      3.71826858845511     -1.66673047766134
  H   0.38066027422320      1.68121924526427     -2.15301888987742
  H   0.16474651926042     -0.83224257639410     -0.92848319508598
  H   0.01962836297769     -0.76192772077546      0.85604737227351
