29
Coordinates from ORCA-job 16991optt
  Br  2.39556688932199     -0.88963950706919     -1.96617396142478
  C   2.55446527097041      0.30414704831837     -0.53333015475782
  C   2.80018762897993      1.62061437391542     -0.73954480591342
  O   2.80757934747261      2.17603145903256     -1.97955812107507
  C   1.49000467101156      2.57439227722332     -2.40318741838848
  C   0.85054279154485      3.68220124908812     -1.55945176756362
  C   0.12616279097216      3.24903825544177     -0.25853401569074
  C   0.41930356640891      4.15493238819007      0.96141611847045
  C   0.65291983783011      3.42548783986333      2.29628940583809
  O   2.01159826216772      2.97909665576329      2.50875156373754
  C   2.41237706823967      2.12722704389994      1.52992666552009
  N   2.12694757231543      0.81306751684263      1.75174365156021
  C   2.33393586885582     -0.21826929505296      0.81562918199551
  N   2.25149663065937     -1.45852228907890      1.08019229877438
  C   2.89950103796346      2.54222097682338      0.35051205170645
  C   0.35679693981146      4.31009661295892      3.43056799820853
  N   0.08486812846669      5.01448727892032      4.29039981176808
  H   0.85046439413185      1.68639334561676     -2.43544120617734
  H   1.64040953465177      2.92900811387810     -3.42056093531896
  H   0.13313165028342      4.18705253282133     -2.20951331924276
  H   1.62193467598764      4.42436528227927     -1.34285314944831
  H   0.36665448233168      2.21082483542368     -0.02696928744566
  H   -0.94986168979731      3.25536177354503     -0.43927686970041
  H   -0.41500347629015      4.83915253192448      1.12100577686695
  H   1.29453370728553      4.78343851444489      0.78905146016187
  H   -0.01348533553248      2.55831943420754      2.36788983557790
  H   1.84396524841341      0.55234554414411      2.68566277931751
  H   2.05799187012296     -1.63742226262444      2.06251836416721
  H   3.09901063541950      3.58355046925884      0.16483804847660
