22
Coordinates from ORCA-job 16999optt
  Br  4.48426601247318     -3.38659806966946     -1.97828458653684
  C   4.17764908324865     -1.73336436117181     -1.16194193477886
  C   3.88804754292235     -1.54498941508706      0.30791104623745
  O   2.78067768409855     -2.17438876237378      0.89570260863626
  C   1.57281225259391     -1.65622839784412      0.48967279710538
  C   1.11259787923580     -0.42148448292059      0.73451285644973
  C   1.75047057605442      0.59596292738590      1.59961412223965
  C   2.17837744219125      1.83137296806872      1.33106094415868
  C   2.31901410144708      2.67489783510213      0.08203990834592
  O   1.67169012528804      3.65930732578493     -0.08907492145408
  S   3.73661675409042      2.33277967650105     -1.01843944550726
  C   4.02761145799776     -0.12677369138704      0.40126376008257
  C   3.59682219044518      0.54973854754707     -0.82515695024272
  C   4.10438679632412     -0.55403762388171     -1.79339322255334
  N   4.83077462472719     -0.75518904539519      1.14157922173063
  C   0.77632101519049     -2.57042777455716     -0.29242264656101
  N   0.13480940410602     -3.28052338210425     -0.92428943285265
  H   0.15373063726162     -0.17425444522348      0.29176006455673
  H   1.85524825002232      0.28194882428726      2.63541643137985
  H   2.55212309143610      2.40685635712264      2.17409532729918
  H   2.52358846801592      0.39117560150413     -0.89748410954354
  H   4.24736461082956     -0.37278061168817     -2.84814183819174
