21
Coordinates from ORCA-job 16996optt
  Br  3.67805397126420      0.10539869307624     -3.18271006277632
  C   3.38906278226313      0.34224747711898     -1.36006776544532
  C   2.20510439843349      0.75172439904322     -0.86133991761960
  O   1.16505058601104      0.93826780793129     -1.72372552146587
  C   0.30474397140871      1.92911869107695     -1.34722269517502
  C   0.70023722607470      3.09786551638730     -0.85106096548211
  C   -0.20450439668099      3.71263546799112      0.13006785109301
  C   -0.64701059268263      2.91673512029350      1.11310546475057
  C   -0.22724415341110      1.46632689494012      1.20041522625404
  O   -1.05901409109734      0.60105136975150      1.29178457738101
  N   1.12874329133193      1.21910356515958      1.35555525360870
  C   2.09136783388790      0.89474534572925      0.59115193615579
  C   3.37337910771105      0.60858090577643      1.25484763685577
  N   4.46002784706360      0.21185406743556      0.72471376914821
  O   4.47410590346385      0.04293792810806     -0.63875972528074
  C   -0.54873916405139      5.10503425583703      0.07073956292131
  N   -0.80127497067446      6.22222456868014      0.00963801339135
  H   -0.73165896494635      1.61800759165330     -1.38773962270343
  H   1.72996784226947      3.43058506148350     -0.92126612866960
  H   -1.35828112647888      3.25450039566669      1.85705313800248
  H   3.40588269884007      0.72105487686022      2.33181997505575
