20
Coordinates from ORCA-job 16994optt
  Br  1.00039191727545     -0.65777170167748      0.13719873154378
  C   2.83650065258975     -0.29054474443415      0.10341855621125
  C   3.75132532769735     -1.27310272842804      0.10084724616862
  O   3.42861818330439     -2.60631631441382      0.11261051895382
  C   4.59129359980030     -3.28817242580113      0.07762134929220
  C   4.49005655935916     -4.69782268137581      0.08867524359088
  C   4.38304276739897     -5.88992400583215      0.09850548108199
  C   5.68777004286655     -2.47493965807056      0.06660607748179
  C   7.05133619206953     -3.02868813904610      0.02264767707927
  O   7.29679134183107     -4.13230167166439     -0.39851555049676
  C   8.23060989693194     -2.25484325681239      0.61718220874629
  O   8.11138234556716     -1.29430360662094      1.31623299718777
  C   5.18145527159490     -1.10783054171053      0.07676968363087
  C   5.80338195763284      0.09879946272043      0.02297302297915
  C   5.11252258364074      1.36507683566930      0.00224282593558
  O   5.62096889068401      2.45413268213395     -0.04798687660678
  S   3.29277721096008      1.36169233776572      0.06506008203828
  H   4.30267966906625     -6.95184394894148      0.10454447201475
  H   9.20256481065318     -2.72353669575210      0.38481650844274
  H   6.87953077907621      0.18224080229177      0.01154974472451
