24
Coordinates from ORCA-job 16995optt
  Br  1.17864658349600     -0.51666557494358     -0.86353447917915
  C   2.98033384843225     -0.35798613296032     -0.37457341308296
  C   3.67394617895100     -1.45756636789143      0.01692098322600
  O   3.04848583590042     -2.64968373824181      0.15945763674734
  C   3.22980163630729     -3.60816275405527     -0.87448498725935
  C   2.25840094238158     -4.75584759356820     -0.60947676906437
  C   0.86258737817710     -4.35525850774780     -0.72994465949245
  C   -0.28514681324275     -4.03578840623582     -0.83745275787340
  C   4.65226055977870     -4.17253991586042     -0.98058133920219
  O   4.84393092608954     -5.13520375914431     -1.67353493004148
  C   5.86141584580245     -3.54230494871471     -0.29583011568942
  O   5.61699579574119     -2.63815243328879      0.75967046114675
  C   5.07405773713459     -1.44419890471901      0.37392027539354
  C   5.81849590128181     -0.32874219992382      0.38280600473967
  S   5.23603186547742      1.23405415137391     -0.00664497685051
  C   3.51865590961276      1.00208657955618     -0.43874728968996
  O   2.89659757565196      1.98050189474543     -0.75391633610559
  H   2.99775850038720     -3.14382576623195     -1.84139727301220
  H   2.44856251459144     -5.14134735953901      0.39528746413322
  H   2.48393811703158     -5.55153268734130     -1.31986172005841
  H   -1.30571220551451     -3.74890625282962     -0.92558573459659
  H   6.45431194220513     -3.06293702113623     -1.08434330726569
  H   6.44728113414204     -4.36186552780455      0.11653521745274
  H   6.86036229018375     -0.37412677349755      0.67231204562449
