26
Coordinates from ORCA-job 16997optt
  Br  1.56826441796592     -1.97355288861170      0.30093347512226
  C   2.59651483036643     -0.49771935331712     -0.24489408187931
  C   2.10694616729496      0.39560386158987     -1.10999662326295
  O   0.84206421799490      0.40391092188079     -1.58225425919220
  C   -0.10690146668569      1.08256739499511     -0.67606098773105
  C   0.59452050135313      2.35664652847846     -0.24453895135606
  C   0.15381390960784      3.58479249723196      0.52917409561503
  C   1.34816356399944      4.56203076356699      0.36566533523596
  C   2.66535082135438      4.20444526557598      1.06322578367408
  O   2.87974533023657      4.62251927721368      2.17003817306793
  N   3.76775598648867      3.53940799582571      0.40247985051325
  C   3.70850014042050      2.17215601967393      0.02509894964689
  S   3.14422013210987      1.77718320821597     -1.60801982530740
  C   4.08170882462817      1.18255469844085      0.84227129195439
  C   3.85141296414063     -0.25499191709277      0.54327721281200
  O   4.46792668163394     -1.13866965717619      1.07811718010090
  H   -0.33506961948201      0.39800572457223      0.14199979882062
  H   -0.99195041974151      1.23971246777324     -1.28749107274996
  H   0.96565363049199      2.75569408992983     -1.18229659270024
  H   1.45126472320580      2.00653387860645      0.32716240268020
  H   -0.03704669974408      3.38654823295675      1.58474019021943
  H   -0.73205729901962      4.06335958218705      0.10951359341254
  H   1.53885431673416      4.70605561194479     -0.69874268142953
  H   1.09352173671529      5.52638691812643      0.80306397099361
  H   4.55257621510857      3.67484830617777      1.03381616290178
  H   4.45624639282171      1.39397057123388      1.83771760883784
