27
Coordinates from ORCA-job 16998optt
  Br  4.00402098678424     -1.69411468125985      3.13827979211277
  C   4.22302288399027     -0.49291571072246      1.70988216960123
  C   3.59550791345768     -0.74438327810261      0.49768052742863
  O   2.87087213704129     -1.87037138573651      0.30775887541075
  C   1.52562018181692     -1.71885406789376     -0.18309690579279
  C   1.37753873276808     -2.31217749257584     -1.60307040178609
  C   0.59099051496572     -1.40399891478094     -2.55430639871019
  C   1.42890212206348     -0.27427610254661     -3.18822650941640
  C   2.10525088713720      0.50904356957393     -2.10136753520664
  O   1.66265549492385      1.45047289822604     -1.52047491655141
  O   3.27744028246806     -0.10659550559212     -1.75180931019764
  C   3.82491259856822      0.19084039259415     -0.52163195394988
  N   4.55565437398681      1.26669799318449     -0.40630350867707
  C   5.13533385480887      1.49416550529305      0.77130019546488
  C   5.00415070126661      0.64507918195949      1.85514272927069
  C   0.61263171953101     -2.35874755729964      0.76722533731600
  C   -0.16509080913292     -2.87769592913460      1.51414642473204
  H   1.27954339714247     -0.65368694902977     -0.18577997826594
  H   0.88318715867783     -3.27942780872183     -1.52711474874888
  H   2.38159027699656     -2.48635113433360     -1.99032281400355
  H   -0.26062005829816     -0.96624448519358     -2.02665048942609
  H   0.17984597213347     -2.00156826995691     -3.36788996850738
  H   0.78785563598331      0.39914282598762     -3.75287527355385
  H   2.18381493352117     -0.70340469228204     -3.84652097330352
  H   5.73719077980609      2.39140166956677      0.84489128627974
  H   5.49497350589966      0.85723497595489      2.79383311165500
  H   -0.84779617830783     -3.33326504717777      2.19130123682559
