28
Coordinates from ORCA-job 17006optt
  Br  1.23194465588406     -0.01624990286673     -0.40091774045171
  C   3.10775901134628      0.02559276531772     -0.21918923726597
  C   3.82523623403373     -1.17236904358667     -0.23497700131819
  O   3.10767209585735     -2.31216718032205     -0.34234781397149
  C   3.82403935006017     -3.51540819577345     -0.55472077779394
  C   5.02202742615303     -3.60354368097146      0.37260425520980
  C   5.72247263945867     -4.95782421443677      0.24314774079332
  C   4.84918767099199     -6.05447395527453      0.65772941734418
  N   4.12541592974673     -6.87919563697657      0.98635746671044
  C   5.97107871818570     -2.46505766164389      0.02407596924852
  C   5.21791818217004     -1.15974873037225     -0.09070393630556
  C   5.86152067999438      0.07716139216743      0.03031232074743
  N   7.26922107063332      0.13198324813980      0.17590205646768
  C   8.15890304510959     -0.36984343435152     -0.72846357018135
  O   9.35401738327671     -0.26289865010954     -0.63441710975210
  C   5.13961195692370      1.26197726040271      0.04737206584269
  C   3.76013545519709      1.23311430573860     -0.06763379163404
  H   4.15752682305265     -3.55958426672028     -1.59947221432107
  H   3.10917390466058     -4.31740655567998     -0.37894069755128
  H   4.66352010694758     -3.48450487889659      1.39857003006993
  H   6.62605345402558     -4.97924520303088      0.85489772012902
  H   6.02766430744160     -5.13062058553928     -0.79250653283564
  H   6.47303267915434     -2.70894491084865     -0.91827677300024
  H   6.75619045253468     -2.36179821027295      0.77675370691502
  H   7.66144643546526      0.73896980739610      0.88265703666654
  H   7.66507246078634     -0.88442396498989     -1.56825677932428
  H   5.66245309515984      2.20489117045012      0.13757562697215
  H   3.18670477574895      2.14961891305148     -0.05813143740988
