28
Coordinates from ORCA-job 17005optt
  Br  5.35801490298561     -2.61883617781313      3.52294782695593
  C   5.71574949493075     -1.49503213474998      2.07333165978603
  C   6.94638085299485     -1.04655117194780      1.81957459669274
  O   7.09244421996074     -0.19719030186321      0.73123610887871
  C   6.46702616130636     -0.58093158087057     -0.41941841982294
  C   7.40132861849788     -0.49727951891763     -1.59273190799198
  C   8.53930020353855     -1.57253807389858     -1.48230728393919
  C   9.99601062586371     -1.04590921426471     -1.30012892969412
  N   10.83179009561825     -1.75681999885344     -0.29398767120427
  C   10.12969905585762     -1.89591721526881      0.90534186443470
  C   9.38666241822858     -0.90125554424090      1.46838893049666
  C   8.30372080213047     -1.57014940823564      2.08216114398976
  N   8.49372998881844     -2.88679894662012      2.10147865297005
  N   9.62294274196155     -3.06449765844608      1.39859021608257
  C   5.23231354683969     -1.07203346155429     -0.31277704449062
  C   4.66173118930059     -1.27770618513594      1.04286942133615
  N   3.43218635364428     -1.41510588392276      1.32600711752987
  H   7.83652191890608      0.50511711367854     -1.62389089583726
  H   6.83406830720926     -0.63460884959871     -2.51200492156592
  H   8.50294111819525     -2.19432675497878     -2.37745223206978
  H   8.29660849014187     -2.23660137761982     -0.65110742953638
  H   9.96871751992752      0.00152310904077     -1.00166991653812
  H   10.54036925475345     -1.08591764358397     -2.24359935089916
  H   11.21358618757674     -2.62416573132783     -0.64398986319258
  H   9.43407584646326      0.14093754704249      1.21541204781710
  H   9.95305911703875     -4.00154223509558      1.23905032607208
  H   4.66774439148358     -1.39276117821441     -1.17738249712329
  H   2.85527657582621     -1.29610152273908      0.49405845086324
