22
Coordinates from ORCA-job 17019optt
  Br  1.19699468904036     -0.01110172107178     -0.05822951383797
  C   3.04671884250141     -0.14316064337626      0.02866452671634
  C   3.73076753581882     -1.29205542480841      0.08610290668451
  O   3.24744705596581     -2.55437543839780      0.13729530612289
  C   4.33346997563955     -3.42734353974526     -0.20795840074132
  C   5.63125593234077     -2.69084461953050      0.19757574619186
  C   6.06860279034462     -3.00245109465076      1.64197338100228
  C   6.43355081852374     -4.41141569038557      1.77690077797917
  N   6.70276155909423     -5.52377845334815      1.82855381611050
  C   6.76687314130758     -2.98352067489591     -0.79361547905308
  O   6.58477412476641     -3.01846323979842     -1.97222328520222
  C   5.15886148603092     -1.25577632489394      0.12105365690313
  C   5.81770465675915     -0.08676473282347      0.12686525324428
  Br  7.68262922727689      0.04066807944553      0.18509190967893
  C   5.07139875585325      1.17680513652172      0.08477386951700
  O   5.53168237098157      2.27356714763311      0.08933057245473
  O   3.69384416761441      1.03630972239586      0.03475149829117
  H   4.33372015251695     -3.59013867384650     -1.28640380184263
  H   4.19341064982363     -4.36875713290115      0.31886306471589
  H   5.25548238868660     -2.77949647672102      2.33501896824101
  H   6.92500183787423     -2.38313993887360      1.91815728732134
  H   7.76104784123904     -3.16776626592767     -0.34954206049782
