28
Coordinates from ORCA-job 17011optt
  Br  1.01458083556179     -0.28362840489888     -0.08612796965402
  C   2.87339085953020     -0.24648763301068      0.10796503823185
  C   3.60452212460289     -1.33574041278235      0.33887091248057
  O   3.07675987378866     -2.56387816953624      0.51711107723171
  C   3.29944209655787     -3.47591096595284     -0.56634016821151
  C   4.53174566661980     -4.33818384805417     -0.32227913755471
  C   4.67049279153227     -5.37967481159077     -1.44109808373833
  C   3.53898372721301     -6.30339593308614     -1.49372460025478
  N   2.64132623220383     -7.01481717905231     -1.51166127075606
  C   5.82419107975731     -3.52999097296761     -0.21106834590529
  C   5.73947723494584     -2.41560553269154      0.83138207645181
  N   5.00081628662243     -1.25144413211177      0.35978791082335
  C   5.67828262591779     -0.15333854395196     -0.16746461529336
  N   6.90149372470809     -0.07960309238349     -0.48222783320192
  C   4.85547759340837      1.12528942914183     -0.29747896225399
  O   5.35248836449258      2.19127598005513     -0.53807732908119
  N   3.50836664896011      0.97538018474660     -0.08144487738766
  H   3.38955832367893     -2.91291039630820     -1.50200385131427
  H   2.40668745831901     -4.09884046716239     -0.61980430999068
  H   4.37217296881334     -4.86514964558303      0.62344777645670
  H   5.57949621822347     -5.96522747077750     -1.29529271096816
  H   4.75788950065152     -4.88377625727260     -2.41145176486933
  H   6.07955994308716     -3.09026254370224     -1.18126822403083
  H   6.63789421483501     -4.20724539468415      0.06004636753753
  H   6.73170522617964     -2.07444657045524      1.11972877154761
  H   5.25130797515719     -2.78397380884457      1.73436177961444
  H   7.39671273195980     -0.96175800201258     -0.38485838186483
  H   2.95617767267202      1.81834459492971     -0.14702927404465
