28
Coordinates from ORCA-job 17027optt
  Br  1.53569807896689      0.41252800159344     -1.62383439174271
  C   3.15430236765584      0.33701408673827     -0.66805686375479
  C   3.57796847953778     -0.88490002825487     -0.14600501566076
  O   2.86248318303385     -2.01427748258489     -0.35682450434633
  C   2.42803521792349     -2.76030837185929      0.79237166371644
  C   2.98802118201373     -4.16755652288876      0.71621555636401
  C   4.47488774548889     -4.27606807697855      1.04807033644725
  C   5.35500372151929     -3.21843888841086      0.40528271920279
  O   5.27602528125261     -1.98822047607053      1.14397601728146
  C   4.78625032520001     -0.87972685022806      0.55993292759244
  N   5.48827834480008      0.22452383362112      0.77280550240740
  C   5.05185896411369      1.35891285304558      0.27283286441032
  O   5.77301551125167      2.48481060373894      0.48744591382573
  C   6.93790435527355      2.32297729274761      1.27084927043082
  C   7.58370636883755      3.63266938065207      1.38345302509861
  N   8.12170535385029      4.63611381676787      1.49628453444701
  C   3.88974195295591      1.48821773618415     -0.47888567521574
  H   1.33805864842139     -2.77801125282634      0.75219188001259
  H   2.73503665258819     -2.24797611778980      1.70661515943886
  H   2.80274614399592     -4.53358995061822     -0.29697685752569
  H   2.41732577075304     -4.80777805251466      1.39244143787945
  H   4.84057881303831     -5.25886910055040      0.74300536871223
  H   4.62670043091663     -4.20524992337813      2.12826280276971
  H   5.10009319161971     -3.04752771515229     -0.64152160473215
  H   6.40157157875478     -3.51837433124935      0.46204379950042
  H   7.62786762332498      1.61331813831960      0.81154866048910
  H   6.69136645942957      1.95083503855895      2.26686298837839
  H   3.58176825348229      2.44395235938740     -0.87338751542686
