24
Coordinates from ORCA-job 17025optt
  Br  0.92923070146157      0.41967504483061      0.02831532189897
  C   2.79813312683997      0.27056085443998      0.06646132028619
  C   3.60237018258027      1.37883570844574      0.14677880675633
  O   3.24062984816606      2.69023319633320      0.23428688493229
  C   4.44396597577823      3.43984015744081      0.10391904479085
  C   4.49231870775949      4.14995246388904     -1.24250169123584
  C   4.39166346557304      3.21372915620199     -2.35659083953527
  C   4.30232191917825      2.41970410342562     -3.24722756228592
  O   5.52628584469623      2.52034171646418      0.23265051762545
  C   4.98449927585192      1.27144029719016      0.15292086088615
  C   5.64565510169275      0.06918066649402      0.09395403732635
  C   4.82729209778180     -1.06029878772846      0.02004172982863
  C   3.43643677097408     -0.96749884886159      0.00596448919537
  S   2.69506299651087     -2.54653885086189     -0.10157556113220
  C   4.29119801282370     -3.34630663995922     -0.13746176305163
  N   4.56092454750292     -4.57842932754872     -0.22396581790147
  N   5.25845370907880     -2.37107921599774     -0.05126700316853
  H   4.49966623019743      4.15569853400256      0.92426294277205
  H   5.42702339923352      4.71163011926128     -1.29826315741054
  H   3.66691407128378      4.86413187645467     -1.27582380077630
  H   4.21590682997961      1.71463401290786     -4.03931241653989
  H   6.72413632269548      0.00544251640632      0.09502767690976
  H   3.73393345929084     -5.16133824202708     -0.28250983016995
  H   6.22697740306929     -2.64754051120333     -0.07008419000085
