25
Coordinates from ORCA-job 17021optt
  Br  1.20249697477120      0.54798085960262     -1.03381735884361
  C   3.06340370922707      0.37322059980702     -0.75552136429823
  C   3.59029856335974     -0.89710592255085     -0.54757681520158
  O   2.85000123117866     -2.02459922698039     -0.69567762520404
  C   2.02353227252923     -2.45033769878936      0.39029491301846
  C   2.77232262271835     -3.53180730297450      1.16880724805778
  C   2.08743768866225     -3.86986252566118      2.49386034666257
  C   0.69704309822031     -4.27648754049751      2.29552502224785
  N   -0.39072738498245     -4.58195632290160      2.10730100739050
  N   4.12464357200791     -3.05486329815648      1.41078859518034
  C   5.04963494475640     -3.28404690870566      0.39429767500171
  O   5.34357158866074     -4.37585629261552     -0.00713002426561
  N   5.65434570200063     -2.11565927004024     -0.07188822800828
  C   4.98217523735814     -0.93407954306120     -0.32970147934769
  N   5.72634961278967      0.16430948306701     -0.41286609730073
  C   5.09947904027854      1.30340834627578     -0.65200434478676
  N   3.79019604194676      1.46903447399488     -0.79397114839921
  H   1.09369312940174     -2.82252598302986     -0.03675944134029
  H   1.79065602334850     -1.59983399735743      1.04054826964817
  H   2.85632478219495     -4.43262668262204      0.56009431360815
  H   2.09975018139610     -2.99959944851863      3.15517230864283
  H   2.63119692819238     -4.67273703166993      2.99101110776563
  H   4.14684714720123     -2.10535725620252      1.76240033973803
  H   6.57365900413224     -2.20897322514206     -0.48044554142840
  H   5.71266828864966      2.19336171472967     -0.72574167853760
