24
Coordinates from ORCA-job 17023optt
  Br  1.19557873785146      0.00504121464370     -0.07412890969973
  C   3.05503789382477     -0.11239277598785      0.00898288827212
  C   3.71295209105125     -1.28470812319570      0.03761502006673
  O   3.00186208084684     -2.44080640042013      0.10994164476427
  C   3.32683296856815     -3.42432823515183     -0.85210575674351
  C   4.49846394728397     -4.25235679611213     -0.37867397394101
  C   4.65189950005261     -5.54075607372302     -1.18502686140789
  C   4.69508252910494     -5.28108634049299     -2.62433845486098
  N   4.70047397694966     -5.05368856399881     -3.74668052406184
  O   5.75806961907460     -3.59756445856944     -0.49023923873202
  C   6.12340311750451     -2.40890571846200      0.03554364611180
  O   7.26579244289040     -2.26352337401700      0.34679044229929
  C   5.16277165749400     -1.23592431350584      0.09024761467798
  C   5.76322000286686     -0.03307396006439      0.15996947121929
  C   5.01606696185320      1.21458101273321      0.17939195538586
  N   5.44518654933286      2.39343069860642      0.28131707737194
  O   3.64473606284246      1.08500865892568      0.06182846088774
  H   3.53254859337151     -2.97431969734376     -1.82776958802340
  H   2.44849486558199     -4.06533040323142     -0.93797092574112
  H   4.33491071918913     -4.51790540375533      0.66923503657365
  H   3.81384438103060     -6.20675777457522     -0.97508691042164
  H   5.57160069939547     -6.04262210785851     -0.88588738211107
  H   6.84112389316591      0.02683230450767      0.20466895081845
  H   6.45804670887279      2.40215663104870      0.35237631729506
