25
Coordinates from ORCA-job 17020optt
  Br  1.13682960664842      0.06658625761048     -0.52028144219250
  C   2.99513125389393     -0.00485282404915     -0.34820809083308
  C   3.64908470272273     -1.19858988294549     -0.27019212716435
  O   2.92762445754705     -2.34049646685165     -0.27286402244211
  C   3.62222884562147     -3.56807079814069     -0.40761864698360
  C   4.91322229224290     -3.58093406505167      0.41425578560131
  C   4.58607470173251     -3.49037627679012      1.91999007527890
  C   5.80548599712972     -3.20201106321682      2.66839730181113
  N   6.80544881789847     -2.95018414758617      3.16809279497897
  N   5.72977186309965     -2.49884378918998     -0.09550231408790
  C   5.07619170540946     -1.24488447646506     -0.12404937453282
  C   5.73713078850255     -0.06874507441728     -0.04898435340934
  N   5.07086248304000      1.11401369774302     -0.13460823439137
  C   3.69880232005074      1.26576148619480     -0.28750494868736
  O   3.20068755311739      2.37069622187245     -0.35139835699713
  C   5.60837994287215     -4.90259021046412      0.09467604184254
  O   5.44301626020166     -5.89558656754568      0.73757073117958
  H   3.86437054990536     -3.74078510275737     -1.45963008913603
  H   2.93792895773594     -4.33975297386630     -0.05931576975751
  H   4.16589598042427     -4.43712357183526      2.26068039857915
  H   3.86062353845892     -2.69554036319477      2.10253960776659
  H   6.62732766981306     -2.44105260653221      0.37425253145610
  H   6.80930913403613     -0.01562812466254      0.07814268373685
  H   5.57868103817531      1.98472516746026     -0.07492468264794
  H   6.25088953972019     -4.87673444531864     -0.80451549896808
