24
Coordinates from ORCA-job 17022optt
  Br  1.38244167900467      0.16569706267683     -1.56575857745575
  C   3.07286204121601      0.03506534961555     -0.78860572212732
  C   3.65956705335280     -1.16012789061419     -0.55540452254580
  O   3.04747158880399     -2.33353655776959     -0.85212139858637
  C   2.14041124463337     -2.88971120545531      0.10994782039379
  C   2.84137900663569     -3.98250143871636      0.91088271268543
  C   4.13969225469384     -3.47872549615741      1.55445794296469
  C   5.30549010249907     -3.51796944251163      0.59105075511453
  N   5.96852305729140     -4.53610246047204      0.27677995755809
  O   5.73315222809174     -2.35014307067260      0.01651847942702
  C   4.99442772706443     -1.20557165980828     -0.01036714208626
  C   5.58155148369035     -0.04433531929457      0.31089433381293
  O   4.98272087170352      1.14094167422544      0.13527329902787
  C   3.73677173139456      1.29149869904850     -0.43823217643634
  O   3.30506741349932      2.39070879480111     -0.58968655673729
  C   1.59548274853271     -1.88928051589638      1.04684614668531
  N   1.19649834574223     -1.17413550930513      1.84726754063466
  H   1.31033208436509     -3.29712316011928     -0.46695508384437
  H   3.05768042656072     -4.81534951842366      0.24042839870369
  H   2.15193330687976     -4.33677357988254      1.67816035279444
  H   4.40204830952187     -4.13749331403202      2.38109206009793
  H   3.99832236777657     -2.48135922448253      1.97813982124713
  H   5.63301421660845     -5.35609449345846      0.77481702206147
  H   6.58515871043773      0.02942227670460      0.70257453661051
