26
Coordinates from ORCA-job 17036optt
  Br  2.36802564853256     -0.30911076527695      0.47643301494806
  C   2.52280917065804     -2.18739633254812      0.15526354371613
  C   2.94904557230405     -2.93158134048551      1.21215246515859
  O   3.89029366596878     -2.45882790627914      2.05925746280100
  C   4.99714872378223     -2.24983909859625      1.21275357326328
  C   4.96893958583541     -2.27395397567635     -0.12493435957176
  C   6.23218849055327     -2.22454949142910     -0.94359414569879
  C   6.86812674753708     -3.59408701620174     -1.17629850172092
  O   5.95600210479334     -4.48182876791687     -1.83098396316502
  C   5.17816496183172     -5.24994470436495     -1.07202452671215
  N   5.32406575534808     -5.39132682207695      0.17064420959002
  C   4.32094056909192     -6.13683634185457      0.89231571862175
  C   3.62295421332151     -5.16593871865083      1.81628572763300
  N   3.59176462601261     -5.09892458413572      3.06123137343925
  O   2.89403353506881     -4.25627217594532      1.05682744452692
  C   3.64596332208395     -2.39364769036184     -0.87951980318734
  O   3.57261149681781     -2.50046976617784     -2.06161014852266
  H   5.89654560061311     -2.14183562547354      1.80169137581867
  H   6.97901555748308     -1.59506507696669     -0.45479378043252
  H   5.99588782683704     -1.77572292518860     -1.90895695962431
  H   7.20175776108172     -4.03809279482560     -0.23982799957220
  H   7.71203395262471     -3.49774543275199     -1.85692572286227
  H   4.40166673221691     -5.72973129337749     -1.67250644026759
  H   3.56873719464627     -6.60127173064375      0.24108844470440
  H   4.79200394620988     -6.91107778479770      1.49813879423854
  H   4.14227323874603     -5.84692183799654      3.47689320287794
