28
Coordinates from ORCA-job 17033optt
  Br  1.99582304691663     -1.36974095832240      0.52081765103700
  C   2.75764374430404      0.23220817714410     -0.07413964011021
  C   2.55681313613527      1.41312895412901      0.56555518559086
  O   1.83038708706151      1.51684660785184      1.70515427221625
  C   0.42347496826604      1.75779267611158      1.56777172320650
  C   0.09736653910626      3.14678271306635      1.03518292992908
  C   0.03381391199506      3.25386208152863     -0.49744326061303
  C   0.45307602540400      4.60559402288986     -1.06628378954855
  O   1.84446722638779      4.70798936687846     -1.30705750036935
  C   2.66476922970394      5.05799394116509     -0.23192738335067
  C   3.13597881665900      3.89730806795776      0.63446214644469
  O   3.50060239353627      4.05159338579545      1.76580177383789
  C   3.22664805175307      2.53134567102118     -0.02691448624360
  N   3.96514490216438      2.49850791032083     -1.08877380594700
  C   4.17760063526708      1.29964066545661     -1.74668734001018
  O   4.84543980228762      1.15770407116979     -2.73666337786835
  N   3.53420266226337      0.18116079196351     -1.17713885190826
  H   0.04264691541586      1.63307595817449      2.57926890452668
  H   -0.01759280121507      0.98057926094768      0.93388232646315
  H   0.81629819437374      3.84615854924001      1.46734463719125
  H   -0.87041958585577      3.44587470077398      1.44364279860183
  H   -0.99010483280197      3.04629382701004     -0.81653473945339
  H   0.65396489742162      2.49562360798194     -0.98112143008195
  H   -0.00788696854594      4.75215673013162     -2.04281684146616
  H   0.12440145609306      5.42370167870725     -0.41225064158739
  H   2.19476590428804      5.79105542174650      0.43300848316447
  H   3.56987801121074      5.50630138915080     -0.65117327298389
  H   3.68679663040434     -0.69753926999201     -1.65296647066767
