27
Coordinates from ORCA-job 17030optt
  Br  1.04511892119817     -0.16731823287690     -0.09438777833661
  C   2.90290138313153     -0.18537409209888      0.02966258617471
  C   3.64875676684432     -1.28995973849443      0.05069361606798
  O   3.24195236631404     -2.58297337217180      0.01850453561417
  C   4.38771015894680     -3.39498752943257     -0.31992528858300
  C   4.34685094708974     -3.69771559400961     -1.80842513027357
  C   5.37993479147796     -4.73027838001129     -2.22557076813364
  C   5.27257845287538     -5.09011054762632     -3.69024611680130
  O   4.44285887028119     -4.62724033541686     -4.42644734876956
  C   6.25721576889871     -6.06033745310086     -4.16813358288773
  C   7.07477778895515     -6.85595094449124     -4.53343693231147
  C   5.61969177947636     -2.57048545164145      0.11274950523438
  C   5.07816162395130     -1.16846440791954      0.11189503138648
  C   5.65792423351611      0.03585241643112      0.16171185274037
  C   4.82848386426943      1.23923029262709      0.17193842526556
  N   5.19052493828759      2.44643938894443      0.23712142693854
  O   3.46065704426342      1.03991356597630      0.10226009002703
  H   4.29021242011027     -4.31376770147908      0.25865864307504
  H   4.48959299561437     -2.77196483786901     -2.37320973114429
  H   3.34949440836312     -4.06057076212846     -2.05803317238264
  H   5.27256049085787     -5.66071902462478     -1.65683776064232
  H   6.40739953633913     -4.39726789229343     -2.04775344837225
  H   7.79314543374940     -7.56218375498083     -4.87852196975582
  H   6.46721297997993     -2.69427605784209     -0.55995734895988
  H   5.94208858923648     -2.84109856739527      1.11968137991655
  H   6.72983769268817      0.17245941593555      0.20185193226853
  H   6.20235575328399      2.51014959799026      0.28615735264475
