24
Coordinates from ORCA-job 17037optt
  Br  1.28478439942045     -1.69431469948005      0.52561962665439
  C   3.11715370933274     -2.34664553604510      0.52153791843862
  C   4.00876487130608     -1.79819598998679      1.56688252565894
  O   4.66510956137308     -0.60547156357366      1.45077858274461
  C   5.42405216226318     -0.67655725299580      0.30548084353201
  C   5.12201018543292     -1.45609929657375     -0.74996820753580
  C   6.20035968447592     -2.16606218584355     -1.45086118445085
  C   5.91194466017777     -3.21675532544871     -2.21486843562818
  O   6.55932654860170     -4.43120632814191     -1.92473780273041
  C   5.88973046339304     -5.01782771082664     -0.90137230432892
  N   4.88810685270042     -4.45307685881967     -0.39100265393821
  C   3.96432767785319     -4.87795265991167      0.56354230337395
  N   3.55987202342884     -6.05446463705253      0.79728185967843
  C   3.29535236684422     -3.72342949768091      1.29844736039651
  C   4.19653141982784     -2.92524061252078      2.24092828275199
  C   3.75221443484718     -2.07943630135306     -0.84650720330412
  O   3.20620671038540     -2.29493657088625     -1.88993521453865
  H   6.35739879322467     -0.13595951717591      0.40052053656898
  H   7.14412310128691     -2.20207906912093     -0.91742605672150
  H   4.99917881557141     -3.33858371413990     -2.77915795617235
  H   6.34341068607726     -5.96985292560936     -0.62322888468632
  H   4.05292178580391     -6.74316132896661      0.22897967496362
  H   2.36242950210035     -4.08548823149289      1.72334467251185
  H   4.81968958427148     -3.22620218635353      3.06972171676138
