23
Coordinates from ORCA-job 17032optt
  Br  4.77064499312807     -0.50561796591458     -1.66314591263314
  C   4.90582254915640      1.31514893700661     -1.20202632728159
  C   4.83472833631540      2.30880040293204     -2.12066454857405
  O   5.07152748421440      2.15423050649052     -3.45767314757946
  C   6.19700077782140      1.34524226300699     -3.65500583723044
  C   7.28790235793356      1.65680118473147     -2.94494170961499
  C   7.86703290966720      0.67098975681406     -2.02443991112114
  C   7.94453899402265     -0.77042715296572     -2.37603400903340
  O   7.88688460135817     -1.15556713949599     -3.51412270324437
  C   7.81147681023015      1.09999701679368     -0.74381649194405
  C   7.28185136394746      0.36469900513210      0.43589633102465
  N   7.74856707227397     -0.71993908597788      0.89101432447050
  C   6.11077823996933      1.14723820223643      0.98328039402220
  C   5.13850523676763      1.64652541342112      0.20696165792257
  S   4.00052240092179      2.89066010861361      0.68974779418698
  N   4.00283828929034      3.90960724638391     -0.67169519411996
  N   4.46914356600235      3.61054471637374     -1.78356798463565
  H   6.00618918831907      0.42801884491005     -4.19082429074324
  H   7.27793305122711      2.66310741424978     -2.53822478385707
  H   8.07132651059195     -1.45830334662582     -1.52654365020090
  H   7.73417890640952      2.17313352077108     -0.60910149606436
  H   7.18167898172233     -1.06638546932927      1.66585842317164
  H   6.14592737870964      1.41249562044203      2.03506907307930
