26
Coordinates from ORCA-job 17034optt
  Br  1.31567536819401     -2.73217703171049     -0.00244484348074
  C   3.06500716443974     -2.30751017518941      0.50025500450774
  C   3.59107787531188     -2.77194651507027      1.64689343374845
  O   4.81456914960351     -2.42455315529258      2.07453499491362
  C   5.69454649805187     -1.97614504820518      1.15314733982202
  C   5.36253393962074     -1.69453311754918     -0.10945042388071
  C   6.39813774708442     -1.74491199277878     -1.18590402443708
  C   6.45329380755994     -3.20856932768820     -1.64749190449254
  O   6.80575090607560     -4.01616130065968     -0.52615612039016
  C   6.17266086622809     -5.26666835305775     -0.42435309625876
  C   4.69906036749738     -5.14274109146585     -0.02995468516673
  O   3.80681116480025     -5.03219330553000     -0.81633835829648
  O   4.52001316670896     -5.17829983475444      1.32070669446495
  C   3.20602683018800     -5.00927349290511      1.82924641480340
  O   3.06656306520913     -3.72390442967752      2.43469752347484
  C   3.94436814521101     -1.68289489775631     -0.50209087059297
  O   3.56314485745695     -1.31456972993263     -1.59164714460178
  H   6.70173834728875     -1.96092678897142      1.54282676215868
  H   7.37721963431341     -1.44571423071340     -0.80948632866243
  H   6.12700880262438     -1.11067012135088     -2.02896217765974
  H   7.20532922304892     -3.34267134555843     -2.42948782721146
  H   5.47708334195173     -3.50112010577309     -2.04300025211984
  H   6.70893028880498     -5.82694309982748      0.33934531913693
  H   6.19905868397761     -5.80911136658268     -1.37356000011101
  H   2.48087135232928     -5.12822812818087      1.02695207202218
  H   3.06751940641939     -5.72556201381832      2.63172249830963
