22
Coordinates from ORCA-job 17046optt
  Br  3.64426158284406      0.36077224742327      2.47678822084845
  C   4.15518103598558      0.18388615715811      0.69187057980777
  C   5.21874207438287      0.78328315424294      0.12078503873312
  O   5.31290303194179      0.49094398619687     -1.24140622142040
  C   5.56638918403573     -0.87934118769051     -1.21620590903824
  C   6.82476814256448     -1.27996492310087     -1.39845850109517
  C   7.52184734392012     -2.40515459995487     -0.74756408653088
  C   7.15831868164406     -3.84030945145147     -0.97823303788666
  O   6.40025072694760     -4.19890868044701     -1.83138854780505
  N   8.51372673338206     -2.21321535444719      0.03508560378637
  C   9.16340828203011     -1.02944912199732      0.39919509787497
  C   8.75974507281534      0.25559087469671      0.53697196096966
  N   7.53323888484737      0.74763747465620      0.16522784238941
  C   6.48693545476127      0.91397841279772      0.84641542077697
  C   4.36449369569673     -1.61326197960896     -0.71405737032082
  O   4.06169090222873     -2.74086328632733     -0.84695570771409
  O   3.47553380333659     -0.73853836355027     -0.01296899971441
  H   7.48398170988240     -0.51313517814510     -1.78320587749878
  H   7.69781387994920     -4.53508633759800     -0.31244860969936
  H   10.17605915407347     -1.22257828633277      0.73029486477274
  H   9.49925316310567      0.96967182147009      0.88768974759366
  H   6.44445745962467      0.86904262200976      1.93756849117074
