22
Coordinates from ORCA-job 17052optt
  Br  0.59612241655335      0.70507092349290     -1.13393510066487
  C   2.37967720620692      0.34719820541071     -0.68895137273991
  C   3.33856728356677      1.26474018313995     -0.88765192455820
  O   3.02028667440647      2.44491622680224     -1.49198104724453
  C   3.23990785539163      3.62863160894630     -0.84301374731373
  C   4.43972737567083      4.19874193077623     -0.79496987336613
  C   4.69438788546418      5.43882766349228     -0.16121206599152
  C   4.91538703028749      6.48693113657037      0.37489258831168
  S   5.80186306481450      3.34482103825610     -1.59663930862340
  O   5.49698132444462      3.21018807254238     -2.98663316648631
  O   7.01739529263090      3.96429957463158     -1.16980450185279
  C   5.78292485301939      1.76101666400262     -0.82624093435013
  C   4.73784715153603      0.96382707985885     -0.56203828008968
  N   5.06249712220433     -0.25427260165635      0.05855073284396
  C   4.15069429323309     -1.11669796157075      0.24645148491451
  C   2.72345932275219     -0.96036090730288     -0.11766702309340
  N   1.95208161971381     -1.94007513099861      0.11363795764475
  H   2.35066873717706      4.08388934830821     -0.42246719689605
  H   5.10893163143636      7.42117810944203      0.84654720877937
  H   6.77484238485665      1.43508311206826     -0.53942491513409
  H   4.40717217631784     -2.06286578085747      0.71523554799011
  H   0.99057729831553     -1.73708849535497     -0.16568506207964
