28
Coordinates from ORCA-job 17057optt
  Br  1.66361885698407     -0.86137511128279     -0.91170802969094
  C   2.69292043008430      0.56893014715937     -0.24898398611856
  C   2.18806219028788      1.81066726164588     -0.16396987257127
  O   0.92823983787646      2.09735667234639     -0.60146668231597
  C   -0.15661485608190      1.79974186697739      0.28810426732129
  C   -1.35219257586635      2.66308581212618     -0.09859192808276
  C   -0.99761264174281      4.08394903814937     -0.57649319468474
  N   0.11724020813367      4.72125003102250      0.11709033025043
  C   1.44212812685622      4.81272393098258     -0.51301421632840
  C   2.38569676371366      4.28239724311347      0.58988873457481
  N   1.55701719781071      4.22595049265599      1.81307057208794
  C   0.35914591019103      4.43936753775600      1.44182412598539
  C   3.02376162776133      2.92183547439669      0.33274962526131
  N   4.27917176519248      2.85980505734456      0.57165081203114
  C   5.07113196250743      1.73871988404833      0.39648255773492
  N   6.32868615938772      1.84146002107150      0.42248212120837
  S   4.29773775642450      0.12340774641361      0.20800741430652
  H   0.16752927886489      1.99808402687867      1.30962836054825
  H   -0.41209995517788      0.74163418804764      0.21281380724848
  H   -2.01308246194537      2.70876510636485      0.77026527085440
  H   -1.92215535150224      2.18006239701058     -0.89449543309614
  H   -1.89107265341617      4.70906272531281     -0.51010420416288
  H   -0.72089202414058      4.04737217652964     -1.62862455727818
  H   1.47885226487543      4.23783170783338     -1.43544115269459
  H   1.67195007528527      5.85537888675113     -0.73596066294486
  H   3.22079173698494      4.95802542116053      0.75555499513935
  H   -0.48064085485102      4.39803716793038      2.13008077876548
  H   6.80068122550220      0.95847309025314      0.24216014665120
