24
Coordinates from ORCA-job 17050optt
  Br  1.22146378159589      0.16051232750140      0.33060756839726
  C   3.06464551401827     -0.01770740064144      0.15903171648176
  C   3.68634271707178     -1.21454838658332      0.07413346010955
  O   2.98395161433224     -2.37133945593204      0.13528326108931
  C   3.67097113965270     -3.52847946302421     -0.33342570597772
  C   5.03298286335837     -3.64276800959800      0.32470237015417
  C   5.90459674099082     -2.43544191985918     -0.06431937110553
  C   6.41757365711728     -2.63852740208262     -1.47542942634761
  O   5.83782373053123     -2.32757980061913     -2.47147895396393
  O   7.60267902343572     -3.30214744409993     -1.45559778013703
  C   8.17506055180113     -3.66265222608125     -2.66764958707346
  N   9.24865223454078     -4.29141348619582     -2.73168100189401
  C   5.11460147291555     -1.14795779609301     -0.00018885848710
  N   5.78914178250473     -0.04535163071223     -0.00827763469886
  C   5.14233460863841      1.16611610600573      0.04714288405877
  O   5.64062481922949      2.24156144452278      0.02483840031861
  O   3.73096666249802      1.12371477649949      0.15269756608511
  H   3.76178755276918     -3.47583270251861     -1.42206825551494
  H   3.03194988243311     -4.36742331694133     -0.06929540844280
  H   5.52035246896490     -4.57337711055829      0.03103765547261
  H   4.90747994089648     -3.66110013209793      1.40848098929473
  H   6.76297597789514     -2.33908887124144      0.59880038125540
  H   7.60372550742342     -3.35048805343354     -3.53395826438283
  H   9.63031575538530     -4.49068004621605     -1.80638600469148
