23
Coordinates from ORCA-job 17060optt
  Br  3.99385984969601      0.58984067570142     -3.52765257820320
  C   4.55493093647304      1.79300061517254     -2.19963017201174
  C   4.00714935480610      2.98424620142674     -1.94631617139529
  O   4.73385799055939      3.96348139225542     -1.34172629455775
  C   6.08543155119475      3.82065670472475     -1.31991434413611
  C   6.65980369867729      2.60891775893093     -1.35801743334227
  C   8.07290617248524      2.44701275068526     -1.26528600213183
  N   9.20491129320758      2.27993511741611     -1.17521753533378
  C   5.70000255215728      1.48623226763993     -1.34214520683105
  C   5.63433138007280      0.58362556785222     -0.35347930544184
  C   4.48893191344184     -0.11662164416822      0.21848411335582
  C   3.14153943079663     -0.14814439059612      0.07772670680353
  N   2.23112326917957      0.15955011131669     -0.91341900377374
  C   1.75607122769058      1.21326372664400     -1.39779503005410
  C   2.03225640169318      2.64670119267369     -1.03679233969339
  N   1.70435102102223      3.28533305517365     -0.02083218800928
  O   2.70652753473794      3.32855173356288     -2.07515835679350
  H   6.60571541127168      4.76239554325867     -1.23298295247324
  H   6.53578040195399      0.47399238362337      0.24252800343650
  H   4.78522555905081     -0.68216965706570      1.09396421443274
  H   2.63676781220399     -0.73426522916768      0.84173904700791
  H   1.06368163463903      1.11106821033728     -2.23533885880305
  H   1.20984360298900      2.69039591260216      0.64326168794865
