29
Coordinates from ORCA-job 17069optt
  Br  1.33685376845090     -0.23189220605990     -0.57461491769977
  C   1.35626443193322      1.48973333230263      0.17289685970702
  C   0.54991669069753      2.48888286961284     -0.26157936329184
  O   -0.34651339879375      2.33512625964254     -1.27835007190419
  C   -1.54782917460953      1.59573988043294     -0.99081728643103
  C   -2.64827017558574      2.08761617982419     -1.91160998094386
  C   -3.19801683100590      3.47981939769475     -1.59445073313006
  N   -2.17660456679952      4.51913897669331     -1.49393665145813
  C   -1.61790450368280      4.70647391957981     -0.16286195456245
  C   -0.08940603246459      4.95344504672463     -0.18162687082060
  C   0.72229105595186      3.79075704849497      0.33076248247733
  C   1.63040828061483      3.97761569781622      1.31987668790643
  C   2.47469495561437      2.91118849735449      1.81787227337367
  O   3.30842945663784      2.99625237999556      2.69521338160196
  N   2.25861429090771      1.69130966696337      1.16906193765356
  C   -2.30738920243066      5.83221806677795      0.50477597008243
  N   -2.84044586412143      6.69261428965019      1.04227500278768
  H   -1.81021607862471      1.72517632419970      0.06371644246590
  H   -1.35682705258854      0.53532180257217     -1.16117972720444
  H   -3.46866472884922      1.36628731512133     -1.88194764560444
  H   -2.25685137987102      2.07329461699325     -2.93289863303220
  H   -3.75837346916422      3.46418788370510     -0.65590693318502
  H   -3.91310327525093      3.75862705121616     -2.37069769117390
  H   -1.42577672271068      4.31629662302606     -2.13925641848921
  H   -1.80904505703330      3.83907087485776      0.47961899590912
  H   0.15769412680976      5.82947555408900      0.41396263796242
  H   0.20392896503858      5.17944647541315     -1.20990955452892
  H   1.77486307651026      4.94703252586729      1.77638546556496
  H   2.84227841441969      0.92574364943847      1.47822629596761
