21
Coordinates from ORCA-job 17065optt
  Br  1.19466408515667     -0.00296946572216      0.03629379461150
  C   3.06809883284990     -0.00033734130071      0.07011241056799
  C   3.77120083933519      1.15132241973735      0.11031155232900
  O   3.41121653277959      2.44377931028746      0.14172279615295
  C   4.59122530228520      3.27960112711447      0.08463429448918
  C   4.59038978386057      4.09882209444088     -1.20332733952200
  C   4.53330349539332      3.19923563619752     -2.35409317359394
  N   4.48610481521530      2.42502091681600     -3.19615961899098
  C   5.73814572599823      2.28529624576922      0.12495011444109
  N   6.98637836717586      2.44316564171064      0.10199369051899
  C   7.79798476233413      1.23560232871699      0.10553642192448
  O   8.98632579188071      1.34626539107397      0.13503900672940
  N   7.16546168346088     -0.02132794926092      0.06991159732080
  C   5.88097769670360     -0.08439949182373      0.08030827358357
  C   5.03033662057717     -1.26459959196189      0.04443671180554
  N   3.74215716943100     -1.18329801680011      0.04403117134033
  N   5.12722017402301      1.05845004417114      0.13073552085918
  H   4.58981291112828      3.93304740819927      0.95595561159501
  H   5.50712287071197      4.69028883860403     -1.24113957591364
  H   3.73183934257412      4.76968972271150     -1.21731411744558
  H   5.50203319712526     -2.23865526868095      0.01206085719712
