27
Coordinates from ORCA-job 17079optt
  Br  0.86039164044842      0.81340512668649      2.02141882291167
  C   2.18703465392999      0.92409126490063      0.67302190117817
  C   3.21758053214265      1.77065310862978      0.83194497164028
  O   3.25971067917423      2.73813783760088      1.75795296091953
  C   2.26290298488051      3.77803583412872      1.70826391108247
  C   1.73187274523145      4.15423443818074      0.31819054646979
  C   0.42073226330191      3.49812759923766     -0.17495219862228
  N   0.62080356272624      2.42216957981694     -1.13803428207022
  C   -0.21696355153082      1.24182519888565     -1.12335050191862
  C   0.60185183602799     -0.06212712035163     -1.06009409675823
  O   0.19790850669757     -1.08578246684990     -1.54105061360927
  C   1.98669531201191      0.08756041248086     -0.49122143786278
  C   3.01038539026290     -0.31244100751727     -1.25240930085983
  S   4.63936256493689      0.21575238682836     -1.00509903255375
  C   4.41867750253212      1.69481455120251     -0.03276981940166
  N   5.29740682520959      2.60256451869759      0.01559390066651
  H   2.78518786162019      4.63071487621107      2.13755510877974
  H   1.43753806143167      3.51570234633800      2.37371744180184
  H   2.52230541345345      4.00769671125876     -0.42328081149298
  H   1.55868046990385      5.23169890692351      0.36401377656031
  H   -0.12719874677959      3.09348844586788      0.67705011428115
  H   -0.21374767491194      4.28418358440715     -0.59910681340196
  H   0.76487993813212      2.77186124864825     -2.07230366486444
  H   -0.84840765279199      1.14640243678263     -2.01024828477688
  H   -0.88847201687142      1.25129025904824     -0.26200002073367
  H   2.84489932927681     -0.91998089222658     -2.13345688879220
  H   6.07798156955329      2.42592081418303     -0.61534568857269
