29
Coordinates from ORCA-job 17078optt
  Br  0.44540992881758     -0.44446281491696     -0.91072806382405
  C   1.50558388835108      0.82207962358158      0.00666421225730
  C   2.48980623516736      1.48082304000928     -0.64374171187045
  O   2.67376296416257      1.44853437585302     -1.97862278140526
  C   1.73019944105552      2.23648056269606     -2.72513452536109
  C   1.31932030907425      3.57293384879852     -2.09538294237461
  C   0.16889026492970      3.53113716868512     -1.06600746712178
  N   0.60824625578620      3.85568301946413      0.29521639476762
  C   -0.40756335124911      3.64405103950636      1.31352092173864
  C   0.15086934684458      3.52055265533303      2.72718550443616
  N   -0.28864445195304      4.06869172385787      3.76217156489121
  O   1.26539255473723      2.71630473335028      2.91840085990822
  C   1.75121264934553      2.05109719174782      1.84830227781637
  N   2.98086797935218      2.46941846962246      1.46462009051513
  C   3.38650986938963      2.34865125065767      0.12619151659768
  N   4.38521018314045      2.93529369571293     -0.39349920606444
  N   1.07681850569992      1.13673861690112      1.26527190022548
  H   0.84196269700469      1.62942863757490     -2.92466222497045
  H   2.23816653518560      2.42028802373541     -3.66980235747137
  H   1.01190773402062      4.20531355353176     -2.93029476119244
  H   2.20293828104272      4.04680921770985     -1.66078424312603
  H   -0.26193975451899      2.52763675443150     -1.03216981161669
  H   -0.63907631944501      4.20095188996728     -1.38834707140814
  H   0.95746179860607      4.80684512553661      0.33088436691885
  H   -1.17141228663515      4.42891110266641      1.34952934710668
  H   -0.91516554836321      2.70427117397679      1.08658890284147
  H   -1.08062798000799      4.66670835718383      3.54576250517162
  H   3.39553363251569      3.20824460247438      2.01494087033650
  H   4.89035863794332      3.50758336035096      0.27992593227788
