23
Coordinates from ORCA-job 17075optt
  Br  3.98691937216533      3.70681558621719     -0.04356933845049
  C   5.17659656419702      2.27327417272269      0.09964747836546
  C   6.35370644560100      2.37216359303860      0.73870922403168
  O   7.19497669939361      1.33186161005663      0.80890694738276
  C   6.95723998635312      0.20948728890333      0.02677980635282
  C   7.94972351730313     -0.66944926847851     -0.22927002263452
  C   9.38617757813362     -0.56564924963679     -0.00533134703584
  N   10.13625340820260      0.46593212885152     -0.10436220442865
  C   9.55085910578823      1.63793115964343     -0.52743426615139
  C   9.63909415388535      2.78997915764908      0.14313510444516
  C   8.59099661321792      3.77742305510100     -0.10899657561173
  N   8.16890256052060      4.14071016237891     -1.24655293298349
  C   7.89704584611234      4.16812808905634      1.18016460057168
  O   8.22384062095401      5.00154888423764      1.94632602974175
  O   6.73336150518931      3.43148152354264      1.45903991659209
  N   5.67355448406885     -0.01400339458881     -0.41106604503866
  C   4.84146855793427      0.96088591996061     -0.39421983170408
  H   7.59574910277344     -1.60358036197163     -0.64538849879288
  H   9.88773855871918     -1.50225458637806      0.23162202894788
  H   8.89056469355758      1.57973307601983     -1.39391044172340
  H   10.20483919881104      2.85271372587069      1.06455319474699
  H   7.33996293922757      4.73325556236616     -1.18357066867068
  H   3.83642848789077      0.78561216543748     -0.76621215795247
