30
Coordinates from ORCA-job 17080optt
  Br  2.22826542427458     -1.33398799544117     -1.09386127401567
  C   2.47533439608334      0.27084639518240     -0.14906708057658
  C   2.27369209768863      1.48111456376801     -0.82281429317855
  O   1.90007135496285      1.51974021615058     -2.12409785805222
  C   0.47692097471091      1.52277052901993     -2.33670624738453
  C   -0.20023570674272      2.84136727755652     -1.97099738008208
  C   -0.52036695202658      3.05463150259140     -0.47634329700820
  N   -0.12318448195972      4.38128751419284     -0.01873250649739
  C   0.31489641250039      4.56304833737393      1.35832640750870
  C   1.81492306913765      4.83846069624625      1.57713108584691
  O   2.58114604747248      3.71776618141665      2.01444444783984
  C   2.63304498376992      2.62225282561356      1.23527925590201
  C   2.44020910528426      2.66898577578965     -0.14146329887207
  N   2.85826824939337      1.49242782947408      1.87428716934356
  C   2.82006610418075      0.34187363764904      1.19798579019611
  C   3.16345613278080     -0.83184334109657      2.06801347879366
  O   3.25911120836725     -1.96954415581650      1.70882393044313
  H   0.03220552916473      0.68230958117495     -1.79490433965336
  H   0.37301028807249      1.33380721465335     -3.40310469222380
  H   -1.12165482670977      2.90102156865065     -2.55287329851512
  H   0.43660082064064      3.64968777155311     -2.34241714212527
  H   -0.03907568425308      2.27297494887794      0.12049876675158
  H   -1.59576102990950      2.93057869228047     -0.32244255351020
  H   0.48260458188775      4.85004760788574     -0.67441321862215
  H   0.03884319483736      3.68217159189770      1.94374817975465
  H   -0.22525615226163      5.40603524508075      1.79873308168427
  H   1.93972386999119      5.55475791356938      2.38622251211984
  H   2.25857919745709      5.28166427000400      0.67844175022652
  H   2.32065059896455      3.59496325229484     -0.68022158786036
  H   3.34191119223999     -0.52221744759355      3.11252421176681
