27
Coordinates from ORCA-job 17082optt
  Br  2.05715300919725     -0.95397265094830      0.41304142002814
  C   2.65995311105745     -2.78201964929315      0.24284189689643
  C   3.28064154785402     -3.24165454343711      1.38561595770476
  O   4.10044655417269     -2.44116462764517      2.11291447625699
  C   5.15778294855079     -2.21727467157587      1.21712531687053
  C   5.10627825795428     -2.41045428677935     -0.10782476984566
  C   6.32110847473545     -2.23119863126988     -0.98681151566933
  N   6.71183074014036     -3.41170055161711     -1.74959343571681
  C   6.87861138559178     -4.62090978035587     -0.97004969043926
  C   5.58326320957404     -5.39227908375598     -0.77300574421826
  O   4.75915767034118     -5.54441598946044     -1.63164084953362
  O   5.45393816000479     -5.89470714356561      0.46575017748340
  C   4.22110729579003     -6.54687543055736      0.76385323066920
  C   3.06751103666993     -5.56108137123564      0.83224431195295
  O   3.51128739261655     -4.48889597560674      1.68519736160621
  C   3.79146010248083     -2.71220381474227     -0.79754634490568
  O   3.67149357506216     -2.67813838907301     -1.98433938650738
  H   6.04118332101942     -1.90174335856979      1.75404763233809
  H   7.16958806421741     -1.91492603519587     -0.37518498627232
  H   6.12072376736721     -1.43817748318163     -1.70789586505376
  H   6.05101120112286     -3.57415963364412     -2.50274079455488
  H   7.31615753375907     -4.38720085363636      0.00035409179764
  H   7.56268915379053     -5.30006005867167     -1.48719004196837
  H   3.99776979653562     -7.30521429329523      0.01270346036322
  H   4.38386197168339     -7.01548891560424      1.73168617389126
  H   2.79650032685803     -5.18023246770440     -0.14628331933411
  H   2.20349039185281     -6.02885030957774      1.30473123616063
