24
Coordinates from ORCA-job 17086optt
  Br  1.06052718759904     -0.22250285508441     -0.26103691090082
  C   2.92284416218419     -0.08397433043417     -0.14038143735086
  C   3.68683879729837     -1.16290246937506      0.16219298899848
  O   3.05784696692899     -2.34889504518769      0.39449960156595
  C   3.75830306747737     -3.46981020083756      0.55870185936726
  C   5.09623391105383     -3.52334848816097      0.51204090135150
  C   5.82149201623847     -2.30135206638777      0.29627419000131
  N   7.18245580518536     -2.36376044670266      0.06384642122079
  C   8.08619528487578     -3.27117763594015      0.61678499842845
  N   7.94851329190507     -3.99493864250735      1.63851806800159
  C   5.12989421344894     -1.11309240345808      0.22275735542465
  C   5.73459051281339      0.19610570482116      0.09649810708206
  C   7.14595430558781      0.45005209205134      0.52279534635115
  O   7.85061590600575      1.28671826060891      0.03074551199215
  C   4.98685637781955      1.27435501375039     -0.21004891469983
  C   3.52766539076382      1.21958140490024     -0.40614557922866
  O   2.89325429775651      2.20596845217451     -0.72498015956012
  H   3.11613694304331     -4.32601425175804      0.70562389167614
  H   5.59761019811065     -4.47575940760696      0.57702016128900
  H   7.56886849058294     -1.68930998687566     -0.57917132586649
  H   9.01899451766776     -3.30493957652261      0.05725344602412
  H   7.06204063496469     -3.84697475566846      2.11917612300701
  H   7.49368965865462     -0.15025680250778      1.38298364580434
  H   5.44257806203374      2.25522843670883     -0.26894828997918
