21
Coordinates from ORCA-job 17084optt
  Br  0.99588725494042      0.01763725562902     -0.17228471482171
  C   2.87816106640357     -0.06878061646674     -0.09799052433735
  C   3.50289555049027     -1.27996974030744     -0.05509806084004
  O   2.78824073205045     -2.43289842820478     -0.05285768286615
  C   3.41638429055393     -3.60144602996543     -0.02659096550429
  C   2.48390631622354     -4.77291772800321     -0.02071307024834
  C   1.77259383726410     -4.88068230641848      1.25506448757060
  N   1.22742419847658     -4.96440562176107      2.25757476261326
  C   4.77231704045165     -3.67310687728871     -0.00597576335774
  N   5.54804075284762     -2.55957473756167     -0.00057826396464
  C   4.95697255386291     -1.40013980674300     -0.01938363066728
  C   5.65433206619317     -0.14353861750942     -0.01604710985510
  N   6.91590563121610      0.16424062776450      0.01082782530084
  C   6.87484357317582      1.56869548931972     -0.00742735979717
  N   5.70876375728122      2.14343273516404     -0.04498734164757
  C   4.84251406701405      1.07108836095105     -0.05361963811938
  N   3.54890418791078      1.10504820345421     -0.09551002287062
  H   3.04808122737983     -5.68864817676938     -0.19301164747009
  H   1.75089583956068     -4.65969918677390     -0.82248790486318
  H   5.27083130379777     -4.63171161466042      0.01352926406293
  H   7.80010475290547      2.12737681615113      0.00856736168299
