22
Coordinates from ORCA-job 17088optt
  Br  4.51640617702032     -0.12930562775077     -1.01379868537229
  C   4.77994932160907      1.44544996537751      0.00598426459953
  C   4.21515889613411      1.59677679519337      1.22753554990291
  O   4.57217266865959      2.60987278344794      2.09135527288985
  C   5.74863515613816      3.28145911429157      1.87745777311057
  C   6.90826891205267      2.69023078613546      1.64784649268780
  C   7.98410148662041      3.43053958472472      0.95878560664027
  N   8.72458995743505      4.36532132193175      1.37335186860369
  C   8.15602897765212      2.98411135959124     -0.47644209131553
  N   7.26569415272147      2.92790481957722     -1.36861227047366
  C   5.93515546231276      3.32915559366050     -1.29744280804195
  C   4.90333085995946      2.67428977328049     -0.76482509482783
  S   3.21460826092752      3.31385999356346     -0.96338058776356
  C   2.08470045844740      2.15549864832344     -0.13855548516562
  N   0.87797025264987      2.07712858967581     -0.46307178203966
  S   2.53868261863694      1.17891284721965      1.34002244060152
  H   5.60535368185246      4.35467514997028      1.81888324175486
  H   6.96849534131216      1.60874106843004      1.62659019156219
  H   8.52087651230759      4.58400982471685      2.34998208792891
  H   9.16849666226632      2.69982415924749     -0.76203685415343
  H   5.74409894347851      4.23696035933811     -1.86380612569141
  H   0.62622523980594      2.64158309005383     -1.27182300543718
