24
Coordinates from ORCA-job 17090optt
  Br  1.50200658844216      0.12214297051206     -2.53142451115328
  C   2.52878302953513      0.81023784544767     -1.12853342991002
  C   3.44264301250192      1.80862653635888     -1.28353093120163
  O   3.43356627475537      2.59352882387346     -2.43176246321080
  C   2.20099399710154      3.22546779654549     -2.50180816203352
  C   1.81879690809884      3.95736775098649     -1.45237014111273
  C   0.57146130390154      3.55292121441709     -0.81834037795731
  N   0.77257642718589      3.21020511706365      0.39508452769856
  C   -0.12352783512600      2.40537317372998      1.10678889595951
  N   -1.36534304147975      2.34295593352502      0.86324664397608
  C   0.57594673524638      1.71519989809787      2.23130282588966
  C   1.81979881245353      1.22209048584995      2.23902085248888
  C   2.70593326224998      0.90158744290050      1.12055289014647
  O   2.09864463799943      0.24557258816872      0.05584661410541
  C   4.03829369841055      1.09509481429158      0.86134348116509
  C   4.20981093188548      2.30018555305451     -0.04300634440592
  O   4.66942371913545      3.38801746172685      0.07133072723248
  H   1.56240175516519      2.88311621050690     -3.30686373870237
  H   2.58940935547017      4.22666352159086     -0.74121193249888
  H   -0.33587990468368      3.31457059664613     -1.37741255006534
  H   -1.84047291989697      1.71082593035854      1.50533977751590
  H   0.03028686059931      1.70633277892899      3.16987435935244
  H   2.22981687327018      0.91978303351279      3.19624392419859
  H   4.33062951777831      0.27813252190601      0.20028906252273
