25
Coordinates from ORCA-job 17106optt
  Br  2.61193481623516      1.46539014701524     -3.29231505052689
  C   3.56714255236013      0.90259361971956     -1.79013416609169
  C   3.51869094344166      1.52088819706338     -0.60506834437341
  O   2.68122510254439      2.54107435891019     -0.30018530863199
  C   1.42972497694074      2.13599138482690      0.28303988618807
  C   1.46193928094006      1.89613559788479      1.80045539795838
  C   1.32448801678330      0.41999749040129      2.20643842774246
  N   2.38045601987408     -0.30614570038734      1.55280883496966
  C   3.28785313189392     -0.96218848561836      2.08921859953679
  O   4.40181026642665     -1.29949819235946      1.33639559151051
  C   4.44294087144853     -0.52826318723824      0.20663553683509
  N   4.41601351827156     -1.10075259927132     -0.92269929924504
  O   4.29504939074427     -0.22013204946103     -2.00496427991833
  C   4.38896135040958      0.94649948603493      0.41634628518761
  N   4.91188926906603      1.59492292972195      1.36596880246975
  C   0.45103207170366      3.22796649601832     -0.12095777018281
  O   -0.54759131960329      3.47583906625754      0.48873040975053
  H   1.09080949835243      1.22772045034517     -0.23640813449832
  H   0.63997184499430      2.45561905460578      2.25007357792173
  H   2.40194952057246      2.29903975259717      2.18060874380679
  H   0.36672895310963      0.03531540827741      1.84908366481027
  H   1.34531785141979      0.32652845741685      3.29742014956023
  H   3.39413079862387     -1.30076742374065      3.11887056265357
  H   5.43508358307920      0.97823200732087      1.98938953157533
  H   0.72444769036785      3.75799373365905     -1.05075164900830
