25
Coordinates from ORCA-job 17107optt
  Br  2.12727457673118     -0.85411188455945     -2.77716338208063
  C   2.26537001329015      0.01668024031279     -1.13223187959853
  C   2.36962902410702      1.35665760927950     -1.01727609714196
  O   2.36043711506281      2.19421447368454     -2.05782973086951
  C   1.27798092812883      3.15028932292427     -2.09206385850701
  C   1.13106369921832      4.07934600502592     -0.88663016593283
  C   0.24077685686158      3.53517588602117      0.27531282995611
  N   0.80908542847191      3.94004313617791      1.55668656728338
  C   1.42281966992585      3.23219435967223      2.37136538443016
  O   1.71475472815412      1.85192094565981      2.35541137766508
  C   2.06236071347125      1.28856683194953      1.20358556841751
  O   1.90187953852964     -0.02436028700544      1.24231522007516
  C   2.21715204899710     -0.78236698428645      0.08563664290820
  N   2.34582987536239     -2.02265206397292      0.17240162628523
  N   2.44842973181225      1.97253149402777      0.21121926223759
  C   -1.11856132678997      4.07996345804730      0.16979115178725
  C   -2.22852503555603      4.50497435784001      0.03043004210881
  H   0.34995232573412      2.59870754271599     -2.27454607389156
  H   1.50325850207326      3.73993688493272     -2.97676513691776
  H   0.67303997847939      5.00054739167792     -1.24759685297434
  H   2.11319659854144      4.33070180503857     -0.49584620134056
  H   0.13551187205650      2.45146368683958      0.18659534352468
  H   1.79014428380454      3.63537854293347      3.30785837393131
  H   2.21923524344624     -2.35332937234531      1.12616363274811
  H   -3.21509638991390      4.88652661740853     -0.08382364410388
