24
Coordinates from ORCA-job 17105optt
  Br  2.54152651249052     -1.35040919694757      1.33823583236172
  C   2.97525558887267      0.07535393125326      0.20822749870499
  C   2.27572366645081      1.22952241426130      0.19336064608358
  O   1.26440483285048      1.35811320806967      1.11470772974158
  C   0.15156235676555      1.95295974837519      0.65244264233216
  C   -0.69647037889648      2.61018032837127      1.44415624961185
  C   -1.62199139439853      3.58089415241159      0.87492369390780
  N   -1.46075595087017      4.19859992764804     -0.22990279623219
  C   -0.33101831865378      3.99150420425445     -1.02410009485474
  O   -0.39661339325999      3.64563975385603     -2.17322473101068
  C   1.04169326905815      4.32621760243179     -0.39979959390345
  N   1.21680350153100      5.32681212413588      0.35196948871432
  C   2.21067811333019      3.56167277957132     -0.91372766664192
  C   2.68715267521735      2.31365541786831     -0.70357142223291
  C   3.88919782835448      1.93639397791106     -1.46323468316158
  N   4.52761957913915      0.82885109288234     -1.41451420513380
  N   4.06654282751835     -0.11537202944421     -0.57781498837264
  H   0.00932532484338      1.86948625312538     -0.41914549326918
  H   -0.58361468483833      2.57165448025329      2.52049335092162
  H   -2.48492593064205      3.86686028562821      1.47386462838467
  H   0.32995734928958      5.79665729953510      0.54604499178209
  H   2.79802261354626      4.15921677502326     -1.60373711563422
  H   4.30058944694988      2.67165445139810     -2.14455956222521
  H   4.58033456535151     -0.97911898187310     -0.55309439987384
