29
Coordinates from ORCA-job 17100optt
  Br  1.22689313013472     -0.08659341137362     -0.22203896207650
  C   3.11748305296381     -0.09538712812941     -0.09038187665735
  C   3.78352579152654      1.13845188065921      0.00766049966356
  O   3.04499467241017      2.26615508437558      0.02499341162411
  C   3.72684396521500      3.44718167862341      0.43831083562376
  C   5.04455539301407      3.59592912788363     -0.29026924453201
  C   5.95436149538653      2.42567436145303      0.07942807720412
  N   6.56462739350351      2.60518448069075      1.39185459943155
  C   7.66522441177660      3.37895263905936      1.55134713414400
  O   8.20740161496934      3.97669263272584      0.65176916472860
  C   5.17892537117164      1.13254149582827      0.05810694450898
  C   5.80629113930841     -0.10523967975228      0.06409771992305
  C   7.26549665152899     -0.48424305232887      0.06912719704281
  N   7.27200813872232     -1.93714049281873      0.32208902501795
  C   5.94730704844628     -2.46168381454494     -0.05032512190631
  C   5.04369235467476     -1.25454886389230     -0.01498614410176
  N   3.71881918520377     -1.25999737960811     -0.10874801952997
  H   3.88953512765384      3.39678119480522      1.52145696800640
  H   3.04151603131633      4.26437301370562      0.22851163448324
  H   5.53218171848184      4.53486153979014     -0.02983349532912
  H   4.86235750931048      3.59216016169295     -1.36693982967636
  H   6.77532489674254      2.36496552531494     -0.63842508842879
  H   6.18061446658673      2.12298037285019      2.18817098292675
  H   8.02478894127938      3.40854697395375      2.59199098560239
  H   7.85645759812050      0.04468519153495      0.81726160114473
  H   7.71367328725405     -0.26852183322615     -0.90698049571100
  H   7.41639743361216     -2.09155795919937      1.31103487459103
  H   5.62828008863078     -3.25407141762702      0.62508628226166
  H   5.97242209105484     -2.87913232244608     -1.06136965997952
