21
Coordinates from ORCA-job 17113optt
  Br  9.60266853989216     -2.29367874825263     -4.25397109596038
  C   8.68800224865180     -1.69929988981514     -2.75001699811228
  C   8.77820696508143     -0.45555242549183     -2.26400643063232
  O   8.06583924138285     -0.08486051615543     -1.14364271091729
  C   6.86380141443259     -0.66982439800117     -0.87866401112585
  C   5.94769694855624      0.17542707789745     -0.10503936888720
  C   5.95234241376394      1.50745513323407     -0.04818413520104
  N   6.79038523187586      2.35375474472195     -0.78644541505189
  C   7.24154948190580      2.02090677374987     -2.03424503974720
  O   6.66519614639742      1.40301191835459     -2.86992007795193
  O   8.50618977442138      2.54515595860970     -2.23036271576364
  C   9.47985686540202      1.75590099153324     -2.76410009140257
  N   9.60387926437425      0.50529549540276     -2.79447017029359
  N   6.53475708415153     -1.84179742835038     -1.21742295625725
  S   7.62020440954934     -2.85160249651178     -1.94709180201538
  O   8.34465976044245     -3.51613838129779     -0.91262322146098
  O   6.92359891571672     -3.59815670334751     -2.93355056901638
  H   5.19105626331934     -0.36863338893675      0.44076731084108
  H   5.26455399461385      2.01886859858750      0.61311084278843
  H   7.34050425178677      3.03012008049391     -0.27762490211211
  H   10.25905078428219      2.38364760357537     -3.18149644172020
