25
Coordinates from ORCA-job 17110optt
  Br  1.29977419100732     -0.34380605321752      0.39453144014407
  C   3.18399615606746     -0.23998710332981      0.23744857107275
  C   3.92191318674972     -1.40551675495388      0.41077381872657
  O   3.33270589709280     -2.56863416437956      0.79651106723362
  C   3.24424657552359     -3.58312461331426     -0.19240122229466
  C   4.57071816821756     -3.73485952698389     -0.93913672372459
  C   5.73373551626038     -3.58310334006220      0.01033072680134
  N   6.47007962858604     -4.68933320948158      0.37893828357233
  C   6.16332327524394     -6.02059796481978      0.19746478269513
  O   6.82367678311020     -6.90683450059913      0.66104294845663
  N   6.10800379051009     -2.45705366679583      0.48132637133336
  C   5.31590378724947     -1.33391723080779      0.27183628850007
  C   5.87676058690067     -0.07958253891904      0.00351811734635
  C   7.34229463411614      0.11365152580233     -0.11245869073955
  O   7.83981886141809      1.16431307713144     -0.42291546005960
  C   5.02724217972572      1.01182296503405     -0.13872283506562
  N   3.70638635846200      0.93771694819102     -0.03062918754074
  H   2.44177068262435     -3.35365637111337     -0.89953003123362
  H   2.98624332749658     -4.48917827504902      0.35396679111951
  H   4.66370325196748     -2.92938976764557     -1.66994664455101
  H   4.58795891842558     -4.66911773995924     -1.49392900388941
  H   7.25531409280273     -4.50177752960246      0.99308091106691
  H   5.26016534655219     -6.20232784369842     -0.39815060630162
  H   7.96044273932020     -0.76827530256810      0.11853555129985
  H   5.45382206456961      1.98556898114163     -0.34748526396808
