21
Coordinates from ORCA-job 17111optt
  Br  2.19325230814004     -2.13618315397264      2.10119097846151
  C   3.02635688076541     -0.89491821227016      0.98279006941136
  C   2.47766584356615      0.30736403478475      0.74061607084822
  O   1.28644597928023      0.62008784952476      1.34017396344505
  C   0.58021907428097      1.46593923751680      0.52884263200128
  C   0.28404320224758      2.72520603606590      0.80770720646685
  C   0.53008702892078      3.60389069603005     -0.37262629605639
  N   0.01263966332602      4.67311103964358     -0.77889279484337
  C   1.78172211868431      3.06930034846967     -1.10254252969506
  O   1.96406493955094      2.99577374663004     -2.26322066359262
  O   2.71113217036171      2.59725624922871     -0.15546471127871
  C   3.17571154278344      1.30733766387694     -0.14936321180267
  C   4.27616897428263      0.99527410653083     -0.83563400436081
  C   4.90780902617506     -0.32155217721107     -0.69653475378025
  O   5.87212991905990     -0.65548692632770     -1.32576075431285
  C   4.30712424154715     -1.29570153346740      0.35525371741261
  O   4.86837455864730     -2.32193791347961      0.60281368484465
  H   0.50826121779675      1.09856239844823     -0.49475777610036
  H   0.39675012984275      3.13173931718402      1.80512906144685
  H   -0.80358889328889      4.92581891660986     -0.21954398811275
  H   4.75563007402974      1.73111827618441     -1.46617590040257
