22
Coordinates from ORCA-job 17114optt
  Br  0.61848418587654      0.88032499141624      0.23240225136084
  C   2.42825476478556      0.49472423904251     -0.05920644649512
  C   3.36971258353337      1.43866344463850      0.11439226556498
  O   2.92823599255172      2.65927761521869      0.50928431813437
  C   3.76127208128135      3.70767282461686      0.62402599513798
  C   5.06654070731706      3.62041178170026      0.41608325697482
  C   5.66342974314173      2.34063758805328      0.07336224394341
  N   6.90401261639979      2.12827563236449     -0.09943669277818
  N   4.75162062239269      1.27125118878583     -0.05461131885566
  C   5.18554867842253     -0.01778262435315     -0.36867076018619
  C   4.41000220230213     -1.13744399800175     -0.58578680627455
  C   5.33234824195604     -2.17608375077738     -0.82679882145736
  N   6.56452991027501     -1.72506026972371     -0.76547079468088
  N   6.46466355348910     -0.42098295705588     -0.48733985204702
  S   2.68841313472851     -1.16146173328745     -0.59925231768106
  O   2.19814060021370     -1.29361982524628     -1.93900514947614
  O   2.18716421274833     -2.06376710232913      0.39399021316560
  H   3.22802986453443      4.60410870470551      0.90436816855277
  H   5.70634088207875      4.48288337685596      0.51452831540148
  H   7.43626699356700      2.98298847440867      0.02392250849341
  H   5.12596857388949     -3.21165472941377     -1.03890210392817
  H   7.26501985451510      0.18963712838166     -0.40387847286931
