24
Coordinates from ORCA-job 17116optt
  Br  1.07409838636297     -0.12071402814337     -0.29108480690916
  C   2.94378171780188     -0.03941842801850     -0.13160657171814
  C   3.66917583577242     -1.19574498341303     -0.08196916566267
  O   3.02552868615669     -2.37094812488941     -0.10968594497053
  C   3.73057731917846     -3.53272342852100     -0.14599381432527
  C   5.04121080433868     -3.57959006078056      0.03668939791652
  C   5.77281042253078     -2.34780090241874      0.32337378602844
  N   6.91222660436907     -2.22826406506264      0.84063143453158
  N   5.02669211917963     -1.16717723771450     -0.00196433381449
  C   5.71727483300946      0.08667402888075     -0.28500318497939
  O   6.83947530546526      0.06808375136312     -0.68503725963462
  N   4.97412684604550      1.21640380549624     -0.06042273971402
  C   3.67654543044544      1.17264314893555     -0.01108929850912
  C   2.99745960601065      2.50728982445034      0.15464904836041
  C   3.15634292693347      3.34656077406824     -1.12231669882456
  C   2.50129078714612      2.71378105391640     -2.26751736272475
  N   1.98192768946360      2.18980862140367     -3.14440035586708
  H   3.08082944177481     -4.37731308091923     -0.31711018127567
  H   5.56905494901948     -4.52106508036756      0.03329267621531
  H   7.32577304523971     -3.14169506132967      1.01318152903598
  H   3.50803093728490      3.02976114853645      0.96337176468637
  H   1.94634325267712      2.39633475728800      0.40766211799472
  H   4.21757238400899      3.45940861950820     -1.34832385570768
  H   2.72785066978487      4.33870494773125     -0.98032618013219
