23
Coordinates from ORCA-job 17120optt
  Br  5.42827679525873      0.69393909115652      0.64149324916564
  C   3.80064536627295     -0.19054714942081      0.37345953480301
  C   2.65318229038652      0.51185728167012      0.09740226045617
  O   2.82296374294255      1.85148130603532     -0.02188266595627
  C   1.66641314160819      2.52432560327177     -0.30461486850155
  C   0.66907045758792      2.49647297482350      0.55809631119292
  C   -0.66993384536374      2.38690057827512     -0.04447713948890
  N   -1.51136850533687      3.25921707340076     -0.39210933768192
  N   -0.96015566415823      1.02730927845343     -0.31013204728960
  C   -0.10296945809464      0.07723391957468     -0.32294833108822
  C   -0.70536546515451     -1.27487615650573     -0.52938636231104
  C   0.21040101118073     -2.22336776574819     -0.37604703592654
  C   1.48624399352650     -1.55712809562352     -0.09679553937666
  N   2.61377289498877     -2.22820093585266      0.14738099378657
  C   3.85362218039299     -1.63067652963549      0.43304914531277
  O   4.81195319528441     -2.32847366165090      0.67258353824750
  C   1.38807545589236     -0.17642480981410     -0.10477206003471
  H   1.60248299101867      2.90729646026388     -1.31689830886492
  H   0.82653722963855      2.04344601740811      1.53130077546198
  H   -1.17450672101132      4.18619981010480     -0.13505440296201
  H   -1.75968977501844     -1.37242003971983     -0.73270440222555
  H   0.08662199971461     -3.29447586332194     -0.43337168424706
  H   2.62172668844329     -3.24008838714485      0.15042837752838
