22
Coordinates from ORCA-job 17126optt
  Br  3.05722869458401     -1.60204685499393      1.11340350308482
  C   3.43459089786486      0.03420192967858      0.27472858524106
  C   2.49054345051998      1.00105274530507      0.20786419563064
  O   1.27819026425309      0.71433782379755      0.75226764898460
  C   0.29982927392229      1.65437835764936      0.61614387317212
  C   -0.06198321400249      2.16535051809586     -0.55101947048069
  C   -0.68784015315981      3.51031117978204     -0.54133305226577
  N   -1.73834046743400      3.91989700491120     -1.11575145809078
  N   0.05063780455464      4.39079842122202      0.24772198593975
  C   1.33558555658731      4.17023006428861      0.77865192360902
  N   1.72660984953568      4.62040303605442      1.89302273469751
  C   2.39099321522228      3.57243596973550     -0.11132027480279
  C   2.84161287517508      2.32854780228243     -0.33121180991244
  S   4.07887610027183      2.18113945359960     -1.57791196358883
  N   5.10099627474802      0.94089407680283     -1.04041427035479
  N   4.73637265830124      0.09548879930439     -0.20937059389250
  H   -0.07219898728227      2.01349048236657      1.56808017366289
  H   0.29668376116527      1.75448560711853     -1.48675074709941
  H   -2.20729873529248      3.16010728297291     -1.59934352553259
  H   -0.41192027615246      5.25660648145319      0.48886884616541
  H   0.97139177980957      5.07867845953014      2.40416105611348
  H   2.93743937680832      4.36021135904311     -0.62448736028070
