24
Coordinates from ORCA-job 17122optt
  Br  1.07872092046430      0.46407496229116      0.65061408678303
  C   2.72684679051764      0.31399747919379     -0.20665587920980
  C   3.45903015410970      1.36096147266129     -0.60891499516764
  O   3.03023232600413      2.63622391703319     -0.36668791258432
  C   3.77989111465085      3.47826206506585      0.43346135720623
  C   5.01901160791961      3.37565005522876      0.94001420535922
  C   6.08069423191497      2.30725253489839      0.91477310835925
  N   6.16436632014739      1.37527896276009      1.76319568430465
  N   7.14525359439615      2.49507994759068     -0.01301841061779
  C   6.86347268862783      2.46565001243196     -1.25430705919483
  C   5.46794795566697      2.22748390257791     -1.65193725941409
  C   4.78843206810572      1.17252449505746     -1.15177950752688
  C   5.31978387984803     -0.15522637723931     -0.90796951069572
  C   4.49144836931592     -1.13907103549597     -0.56385056211777
  O   3.15731543314287     -0.95609461046936     -0.33121825841629
  C   3.01257630038513      4.66191466753384      0.69855941468307
  C   2.37321790115112      5.64964128275457      0.92022164505335
  H   5.31154525472530      4.24313181092993      1.52142794643717
  H   5.36998011972933      1.40027057731846      2.40016071468766
  H   7.65151827072976      2.71288316114892     -1.96266641066167
  H   4.91372437342777      3.10862783338280     -1.95924791216180
  H   6.36872641013229     -0.36656663847986     -1.05865569517519
  H   4.76695052635918     -2.17428653236420     -0.43698580691183
  H   1.80631338852800      6.52733605418963      1.12046701698202
