24
Coordinates from ORCA-job 17124optt
  Br  2.66886739012685     -1.94534881324400     -1.08974877590857
  C   2.92698759213121     -0.28925453130327     -0.26998559547607
  C   2.56426387530817      0.87585030520429     -0.86406170406886
  O   1.84414700149234      0.91020975790271     -2.04845460676967
  C   0.58874201570696      1.39879516725398     -1.68865165191527
  C   0.25547248541794      2.67426170403018     -1.82179696219607
  C   -0.71986816636297      3.26312041176081     -0.85582622776329
  N   -1.95798371065536      3.11354482018907     -0.71189571098152
  N   0.07243366622138      4.03481421791675      0.05589916261504
  C   0.62224277094778      3.37322644338342      0.97969302378305
  C   1.75629292952903      3.89553675023318      1.80934574961648
  N   2.85850649844212      3.26612078299050      1.93261950517009
  C   2.99987488954640      2.12151059022008      1.12816186234630
  N   3.36468828240366      0.96421867275078      1.73430043495398
  C   3.43652483791815     -0.28977331813547      1.10507310250439
  O   3.80743162457650     -1.25754305788701      1.72562023434002
  C   2.73322179094577      2.12115295254441     -0.20051700791375
  H   -0.01114413318605      0.68377113956170     -1.13120210607272
  H   0.93457379439337      3.35634917063930     -2.31975282418081
  H   -2.34176338764734      2.55776755536367     -1.47441479126818
  H   0.37883038965666      2.32013526398162      1.16230953314503
  H   1.63694706943501      4.83951440318506      2.33563833596222
  H   3.58518188730562      0.96619750739804      2.72198173101559
  H   2.49552860634678      3.04082210406014     -0.70233471093742
