25
Coordinates from ORCA-job 17130optt
  Br  1.13291201803214     -0.46271800688787     -0.24824921477960
  C   3.01240597651983     -0.25999903665565     -0.14416416618216
  C   3.76239629034976     -1.41357274413132      0.06369456177400
  O   3.13451522363965     -2.60182264869893      0.27672985266667
  C   3.36955080284780     -3.62185118074500     -0.67862335136354
  C   4.68070214011139     -4.36101818885855     -0.43668389685234
  C   5.86381082664406     -3.45239965748308     -0.60382843925695
  N   6.79658501870092     -3.51189139657718     -1.43415984718663
  O   5.91775296982116     -2.43466990621953      0.34053280983658
  C   5.15477709491955     -1.32238787762023      0.10501250724449
  C   5.78635256027980     -0.09501117620546     -0.02933800725955
  C   5.02550088532739      1.04349455957587     -0.20215661086829
  C   3.63463630790701      0.98052525743179     -0.26589519394115
  C   2.88354159592305      2.25016095018856     -0.46758956046331
  O   3.42571888369562      3.32011756922964     -0.54231501980759
  C   2.18027818910178     -4.56405253361177     -0.59222796429965
  O   2.21373146000846     -5.68418470793339     -1.00766279301431
  H   3.35843042156818     -3.18537402419830     -1.68702360370274
  H   4.73997895123698     -5.20072095674835     -1.12748521628716
  H   4.67326747143348     -4.74558057308768      0.58561332900998
  H   6.68893702470941     -4.31687548819795     -2.04770880815666
  H   6.86631933869243     -0.06534980962900      0.00923995303188
  H   5.48756210493525      2.01672478485599     -0.30534530451753
  H   1.78953089528759      2.16387024178866     -0.54462381220028
  H   1.27880554830720     -4.12241344958122     -0.13074220342413
