22
Coordinates from ORCA-job 17134optt
  Br  1.43546978547787     -0.15627034824434      1.42214948546370
  C   3.16585565563269     -0.09786580043644      0.70459032778006
  C   3.98441520712436     -1.21747409345676      0.74015657248262
  O   3.52966797875980     -2.35818830162613      1.31258040246239
  C   3.78927778877570     -3.54118838139651      0.60238929354113
  C   2.76552328939828     -4.57350633673311      1.03742478191096
  C   1.42504919398231     -4.17900952776704      0.61633345766697
  N   0.38576303953927     -3.85665638612542      0.26164055786133
  O   5.05013766404140     -4.07598453707480      0.91696964811787
  C   6.13699104542898     -3.34440075367928      0.58758401639216
  N   6.24237792827664     -2.13883440753388      0.24369420517269
  C   5.27150745509897     -1.14480137856575      0.19468009404640
  C   5.63235554588991      0.07968935874834     -0.38725758170547
  N   4.84865997538839      1.14937186676384     -0.42873898436284
  C   3.64716145980792      1.06636598067654      0.11788414679885
  C   6.93985095217558      0.21026000814073     -0.98807435178616
  N   7.97042873876791      0.32903463209550     -1.47463895134246
  H   3.74123089955214     -3.33839786888039     -0.47141446857060
  H   2.80346182499531     -4.66321688466620      2.12385537404399
  H   3.01807298028918     -5.53840917575414      0.59886564937659
  H   7.02706815330353     -3.96248320559040      0.64230463699701
  H   3.02567343829381      1.95296554110566      0.09002168765281
