22
Coordinates from ORCA-job 17138optt
  Br  4.24014345518919     -1.37366994004571     -1.84389624685384
  C   3.32477368558531     -0.31118153068311     -0.63420246828182
  C   3.07652202893447      1.18057401167935     -0.69025380358729
  O   2.45112008367712      1.66220295054404     -1.83394785059758
  C   1.35132245982980      2.42718361166522     -1.57608480961764
  C   1.30206103051560      3.30407508344558     -0.58403184350726
  C   0.02150453296469      3.57903144422950      0.06978260844328
  N   -1.01960365820355      4.02904543752388     -0.44869890127393
  O   0.06616857734200      3.24614649678671      1.43733302201273
  C   0.98141880665588      2.39401759781801      1.95447620109166
  O   1.44722893305647      2.53701134955275      3.02799414107239
  O   1.19255432452073      1.29203693496928      1.16261159107833
  C   2.46577122360061      0.94404263762512      0.74311914000899
  O   3.53130035952563      1.72287746368559      1.32268494885290
  C   4.10456050100699      1.99180999329136      0.08448841466323
  N   5.08522287192205      2.69111401593170     -0.21288028387235
  C   2.79423273924431     -0.51596647568723      0.57182061438195
  H   0.49416194923566      2.16905128828887     -2.18609195006045
  H   2.19172453957547      3.54008779667430     -0.01142058976249
  H   -1.79585159355649      4.03973307684201      0.21151704367046
  H   5.52923424325071      3.10492853731559      0.60700866719157
  H   2.75842890612732     -1.35515178145280      1.24967235494712
