24
Coordinates from ORCA-job 17131optt
  Br  1.07357306024939     -0.16248616070490     -0.36661461669049
  C   2.93204471228912     -0.19814316702638     -0.18675410220723
  C   3.62034436462415     -1.33311149396172      0.03938289355001
  O   2.99324645495401     -2.52103418449524      0.26180871824573
  C   3.21139029503725     -3.53666996148521     -0.70853080716134
  C   4.54303279363184     -4.23794267808942     -0.49318586076360
  C   5.70846606879037     -3.29987512427167     -0.63242142630237
  N   6.61526925428859     -3.28592348742939     -1.48997925618417
  O   5.78172447908294     -2.33624277891543      0.37513778981677
  C   5.05288436051369     -1.20894936138743      0.16137742746741
  C   5.65886331704807     -0.00865878553262      0.10303813581141
  C   4.89185949818222      1.19613314215209     -0.10610442130194
  O   5.28720978379814      2.31545187980307     -0.18005253906593
  O   3.50315198507907      0.99542006930540     -0.26800838304751
  O   2.21783253414424     -4.49150188469347     -0.53160714671759
  C   0.95061306215585     -4.11357413216870     -0.88744367521053
  N   -0.05478135273497     -4.83698130698854     -0.74040316156044
  H   3.14491900314133     -3.07937574949238     -1.70523204533165
  H   4.63340926623185     -5.04846882301075     -1.21476846739781
  H   4.53106845821485     -4.65379439607520      0.51595936025707
  H   6.50686568000422     -4.04410522128572     -2.16025650978024
  H   6.72993458160231      0.08569653392916      0.18972091767061
  H   0.88513319969446     -3.11702751037548     -1.32184259129364
  H   0.18594513997698     -5.72883541780007     -0.30622023280253
