20
Coordinates from ORCA-job 17136optt
  Br  1.88986050256589     -1.46435656378072     -1.99999551431354
  C   2.90308895604794     -0.26162968536664     -0.98572570847959
  C   3.09733786772530      1.00410498755885     -1.34177643403181
  O   2.37509520785007      1.65590227390058     -2.33194467374309
  C   1.19371606799574      1.92611006031949     -1.64041580429819
  C   1.07429674568295      2.98184593426141     -0.84378677875975
  C   0.02631984089470      3.00991000060339      0.18983186953530
  N   -1.18033610851278      2.68650569398775      0.13806583089419
  O   0.44915474498363      3.52843662794065      1.41399436135176
  C   1.59975639279852      3.35012344982929      2.08493937941814
  N   2.54625905242741      2.53101814618303      1.99138858024247
  C   2.89907214996751      1.51926236551281      1.15978279666939
  S   3.94956390690187      2.07255336764762     -0.21590842061524
  N   2.65843490301753      0.29286216865460      1.36203590886895
  C   3.16517560335147     -0.66534177119835      0.45273073656790
  O   3.60027367574455     -1.72174790387599      0.78822487497051
  H   0.47776440872141      1.11048679653004     -1.66385962117306
  H   1.84539685304480      3.73843604039973     -0.80826199533983
  H   -1.44759310719224      2.42774851742732     -0.80855111478756
  H   1.63436233598371      4.08176949346511      2.88623172702305
