23
Coordinates from ORCA-job 17140optt
  Br  0.05560937714232      0.72696314059247     -2.53665794059551
  C   1.91593358295063      0.62624567888525     -2.75613671760186
  C   2.62055959519026     -0.60346626975540     -2.42314065394062
  O   3.96700585738154     -0.43393045007007     -2.09261941493597
  C   4.62576470879038      0.64730311260974     -2.47083509993579
  C   4.05491698321854      1.72652715572206     -3.03425838443478
  C   4.95040201020696      2.82689455836638     -3.43004269702471
  O   4.62136492549543      3.85862031754291     -3.94564069808041
  C   2.59987566874181      1.75193362808793     -3.09556794762170
  N   2.01678012260314      2.94619108656497     -3.40223377339237
  C   0.95683399620739      3.46696604655154     -3.62994641495054
  O   0.01466603682177      4.09228082757797     -3.87249614184339
  O   -1.60881039427400     -2.87690566344245     -5.11974240572420
  C   -0.92503164922746     -3.04072928139762     -4.14253013832992
  C   0.26222927480240     -2.24161429941815     -3.82356943536568
  C   0.97916250936872     -2.51359725804523     -2.72618829175538
  C   2.20854387565153     -1.87866176303789     -2.30345037717045
  H   5.68660498504862      0.57844631574674     -2.26367037197248
  H   6.01527305577054      2.61627740090261     -3.20721068318645
  H   -1.16047691521522     -3.83733355263078     -3.40874828492368
  H   0.53320271303101     -1.46258223730542     -4.52584834081998
  H   0.66474241283343     -3.36340342053543     -2.12374564761034
  H   2.94484726746022     -2.53742507351211     -1.85572013878372
