24
Coordinates from ORCA-job 17147optt
  Br  1.11828200023030     -0.20469516269074     -0.13159672496307
  C   2.97390365430547     -0.05094717789156     -0.03813728024872
  C   3.78533884838005     -1.10992982333824      0.15298123149940
  O   3.38532345673850     -2.40256185104104      0.28304330485748
  C   4.50903877079035     -3.16585301875660      0.35607210917702
  C   5.64426779681688     -2.44331611569524      0.30910545520934
  C   6.97577492742952     -3.05596025164196      0.18659111952308
  O   7.18988172064427     -4.21779830513593      0.42050224413124
  C   5.21461105497618     -1.05181076995577      0.20767857914145
  C   5.77181622617448      0.18814821612714      0.17686132466965
  N   7.07768454543333      0.53942618877403      0.32517968990318
  C   7.95390447440976     -0.09697198096812      1.30007526806440
  C   9.25826513018714     -0.45400635048892      0.74094861559264
  C   10.32789262178377     -0.73945958276860      0.28846111812346
  O   4.99181207875024      1.26375374755837     -0.02825425452685
  C   3.59516827450017      1.24316040274921     -0.21497171467793
  N   2.99587070738653      2.31388317764593     -0.49216843326066
  H   4.36132692370931     -4.23166252860480      0.40348230249152
  H   7.78370623476513     -2.39515554356635     -0.17265980466425
  H   7.25137248283226      1.51939179494685      0.15848944680969
  H   7.45774734199094     -0.98735671902406      1.68654875542615
  H   8.10165810079454      0.56807810232367      2.15539403657133
  H   11.27840704489363     -0.99907133883642     -0.11412267802375
  H   3.63594558207711      3.10071489027916     -0.55250371082580
