24
Coordinates from ORCA-job 17149optt
  Br  1.05575336803726     -0.26912068604772      0.28354964962699
  C   2.93273282271263     -0.19683020758803      0.22467343204406
  C   3.66259315998930     -1.38571371184059      0.18841523820151
  O   2.97942536327286     -2.54482677086488      0.17928577254809
  C   3.70257327495028     -3.67402900423335     -0.32958535210295
  C   5.03066857863019     -3.82816532472100      0.39819166085695
  C   5.86260565353501     -2.57089657288166      0.23610982644919
  O   7.06146842117314     -2.58744118407960      0.20353976552967
  C   5.05858575788373     -1.31231037718331      0.16590324796724
  N   5.70123736641750     -0.14499100384138      0.16762359037899
  C   5.01706550333201      0.97148588075367      0.19470595514143
  C   3.60742005037816      1.01716941778762      0.20905449166408
  N   2.92013066443185      2.22085318607406      0.22761232281352
  C   3.37264352794762      3.42107075838348     -0.26961743169877
  O   2.72332800540382      4.42969400204174     -0.23083885381895
  C   2.84941117158841     -4.84892775182070     -0.19326492830325
  C   2.18463284966994     -5.83679167138368     -0.08861577286949
  H   3.88935843676306     -3.48689727855387     -1.39422089037036
  H   5.58655299435323     -4.68336537276654      0.01891885954810
  H   4.83686689709628     -3.98570186552790      1.46312811784849
  H   5.58804622310413      1.89103025961355      0.23826732311547
  H   1.94889947599564      2.21046594537698      0.51415527498794
  H   4.37192569335134      3.36470353484781     -0.72220810327918
  H   1.58407473998257     -6.71046420154471      0.00521680372123
