24
Coordinates from ORCA-job 17148optt
  Br  1.07749218491360     -0.16716534406617      0.03593156554921
  C   2.94887063971917     -0.09725843669451     -0.06554538413142
  C   3.70145347552744     -1.26226608536998     -0.10627055427851
  O   3.05358120736792     -2.44853436914349     -0.07999812055058
  C   3.78068658735858     -3.55238875920286     -0.60780295367347
  C   5.11649341978610     -3.69634628577577      0.09048166307556
  C   5.93085516982226     -2.43289045373305     -0.08363355579384
  O   7.12935402489947     -2.42770098202021     -0.13580582772975
  C   5.11576927196668     -1.17078349106623     -0.14962185184237
  N   5.77807766106704     -0.02249708109730     -0.19323116690926
  C   5.03864296385021      1.06371602967356     -0.17825403859038
  C   3.61874859460379      1.12037030635685     -0.10243114302686
  C   3.25424852535608      2.49368684445471     -0.10074872044094
  C   4.43015085293456      3.20010736332210     -0.17465149853265
  N   5.49853995758737      2.34888271858008     -0.21911393908070
  C   4.64102009613046      4.64792687072453     -0.21272755193439
  O   5.73979877317210      5.13800690154499     -0.27351798943993
  H   3.92081009364859     -3.39634184910222     -1.68301977425134
  H   3.14439413485480     -4.42096009446789     -0.45834784748937
  H   5.68630001500637     -4.54210258568930     -0.29132284354847
  H   4.95417783863290     -3.84638071354040      1.16237579316336
  H   2.26142296096223      2.90999653092397     -0.05445573944280
  H   6.46228475380540      2.64079677515009     -0.27376598717377
  H   3.72682679702683      5.26312619023849     -0.18552253392734
