23
Coordinates from ORCA-job 17142optt
  Br  1.03365318587226      0.13836917799653      0.01773053035573
  C   2.91072955272265      0.06126445626600     -0.03657634596206
  C   3.66731306946817      1.22669357015895     -0.05697445747825
  O   3.01178522347040      2.40376036971478     -0.04339320582651
  C   3.74814289100416      3.52776187257667     -0.51705568609678
  C   5.06714653094630      3.66006631015198      0.21608616248911
  C   5.88266482342447      2.40080906593176      0.03119037365823
  O   7.08697124054552      2.39925108121484      0.00223268308361
  C   5.07881338386172      1.15137670628463     -0.07215680175472
  C   5.72482798980486     -0.07291870826432     -0.10583864671274
  C   4.97436971253028     -1.23955302471659     -0.10931859684491
  C   3.56631305899330     -1.16121204395280     -0.06356573138305
  S   2.89603296755421     -2.74412418937414     -0.06619805789363
  C   4.53258783434852     -3.38514684125057     -0.12870421472324
  N   5.48447940775944     -2.51820284742698     -0.14451396387453
  C   4.71985210813827     -4.79522897438497     -0.15829113476105
  C   4.83798494452492     -5.98686193788455     -0.18149643357250
  H   3.10219235484674      4.38710888195839     -0.35710751093209
  H   3.91445035488137      3.40378060671956     -1.59224955555788
  H   4.88082162842398      3.78362605387385      1.28743471172426
  H   5.64149422700070      4.51669611019333     -0.13302611804876
  H   6.80638558142520     -0.10535963790997     -0.11338837119977
  H   4.95998792845253     -7.04395605787632     -0.20381962868845
