29
Coordinates from ORCA-job 17153optt
  Br  5.48829323366274     -4.98676892540885     -1.89073925583446
  C   5.94959896592395     -3.32873560562873     -1.14017960473170
  C   7.22937064494498     -2.92374489633010     -1.07507175340174
  O   7.50116420024504     -1.70472521939656     -0.54889022808276
  C   6.64885465989674     -1.07978844277680      0.28661182632037
  C   7.34265893052422     -0.03557625324182      1.12639252737463
  C   8.87288612868029     -0.15955578255344      1.22313589548453
  O   9.29840627117029     -1.42730114664483      1.73429274325881
  C   9.50386236403833     -2.38867304040077      0.78284595466081
  N   10.06157738177334     -2.10098275988616     -0.30333121620305
  C   9.76286529990449     -2.91601620322897     -1.47420346874791
  C   8.48032564436790     -3.74665362871185     -1.31037171583940
  C   8.69597282311182     -4.61170877217380     -0.05173534441163
  C   8.83707259526111     -3.68567449390332      1.16002708014601
  C   5.36104436598415     -1.44685002557523      0.32948323519049
  C   4.86323635034034     -2.53754014621296     -0.51473097800120
  O   3.69046695743112     -2.82259789360501     -0.61651082502555
  H   6.89809287448242     -0.07242188642616      2.12208578887208
  H   7.12797197383641      0.95835067469216      0.72217379420143
  H   9.23476343244424      0.59106020237940      1.92297258582754
  H   9.33973624528097      0.00786726514416      0.25484180254519
  H   10.58579059935525     -3.59712461859300     -1.70691208422819
  H   9.67364700611435     -2.22895818554746     -2.31796223528889
  H   8.33098495989281     -4.38343994495810     -2.18110220350917
  H   9.60433829612940     -5.19796841696376     -0.20089924152836
  H   7.87097548900249     -5.30754759040473      0.09764535714065
  H   9.40483138359905     -4.15509688152413      1.96591358372412
  H   7.85775665104860     -3.43948530527600      1.58003434477490
  H   4.66245427155298     -0.96434207684318      0.99818363531244
