25
Coordinates from ORCA-job 17150optt
  Br  1.46750916613435      0.32342687250411      0.54010872449370
  C   3.32792625204265      0.11603963127428      0.30926725155360
  C   3.84542475673372     -1.16988254523720      0.06599118125882
  O   3.01506877949348     -2.21752748248360     -0.02671985150551
  C   3.56858548388097     -3.37339654268133     -0.65890904804945
  C   4.90300572791834     -3.74986409068711     -0.04460418888091
  C   5.87653326762824     -2.59813453344831     -0.17255224576288
  O   7.05521854415572     -2.73810865297345     -0.33057868606954
  C   5.22893000280616     -1.24626458953215     -0.03942175222472
  N   6.00686140861538     -0.16240721402718      0.03418996626563
  C   5.41462115784953      0.99379101335317      0.22718565545436
  N   4.09033026920088      1.16420215334629      0.38877321347460
  C   6.25750558926907      2.24381634465020      0.26562649134472
  C   5.95935615788247      3.15420798755075      1.47924024530725
  O   5.45367294771544      4.36482954329095      0.89147181256779
  C   5.50210876542605      4.17321892930296     -0.43927429541843
  N   5.93346472542887      3.08332000512248     -0.90139066487493
  H   3.68350487227874     -3.15458277814979     -1.72557764398591
  H   2.82565520827893     -4.15665340640404     -0.53581596290365
  H   5.32791064479423     -4.63311898540441     -0.51871216560202
  H   4.77143840817000     -3.96087998349981      1.02134090826432
  H   7.29998345040415      1.93505238256146      0.21568613711553
  H   6.85184881062436      3.39989803641641      2.05146067314415
  H   5.19229237690595      2.74974492617640      2.13685260145192
  H   5.16124322636223      5.01127297897891     -1.03363835641843
