23
Coordinates from ORCA-job 17154optt
  Br  1.00938040441674     -0.24949480207882     -0.19373943249822
  C   2.86129586484840     -0.09479891852847     -0.03924797536987
  C   3.48698006333877      1.06605730532391     -0.30470865082341
  O   2.82604242237371      2.11986475166927     -0.82656728044599
  C   2.65547482426209      3.30650413161352     -0.04823555920655
  C   3.96400177078479      3.84449777554101      0.52872870738857
  C   5.10231705494744      3.63071633063587     -0.45121481927536
  O   5.50313681401962      4.46841038431072     -1.20482300429320
  C   5.73021027434436      2.25446882480636     -0.37216837827018
  N   7.05662810289361      2.19858586639211     -0.37670894236033
  C   7.59666780421385      1.00304447263231     -0.17992163004002
  N   6.94871596927125     -0.13308722979225      0.05703237931676
  C   5.63711374215233     -0.05977442386250      0.04871197562970
  O   4.99173399144823     -1.20900910834164      0.29887558633313
  C   3.60979979859622     -1.30298392295307      0.33351939264482
  N   3.06220758177564     -2.38705077344023      0.64373247729676
  C   4.93716442660109      1.12362143388218     -0.19762836521860
  H   1.92920864334011      3.11479714778193      0.74446430110504
  H   2.23627975490347      4.02105947689247     -0.75224850250420
  H   4.20332464319582      3.34043622654948      1.46713957101383
  H   3.86040976788990      4.91165170940370      0.71837033235157
  H   8.67860488020329      0.94597861002447     -0.19915482529879
  H   3.75530140017919     -3.10349526846233      0.85179264252456
