20
Coordinates from ORCA-job 17155optt
  Br  2.78903693932366      0.21372465462851      3.55130982742947
  C   3.68517209701901     -0.01233077480498      1.93794030445384
  C   3.56456746999718      0.85181008095865      0.91633439917881
  O   2.86931189970159      2.01367819979136      1.15537842612158
  C   1.84016186658282      2.37883068277367      0.34066531703800
  C   1.87002493673810      2.48851940838593     -0.98528316626130
  C   3.03110833355333      2.22816967440167     -1.87230150499635
  O   3.03894122835409      2.71972576870698     -2.97723259096209
  C   4.11568791037614      1.30071630134916     -1.48722156753027
  C   4.27749681481821      0.64990211299762     -0.32465852247462
  C   5.31766624933353     -0.42539851458474     -0.29089534130909
  O   6.10268270205670     -0.61498836301053     -1.17594519379895
  C   5.34922348178373     -1.34823686623746      0.92052047930995
  N   6.12130907897483     -2.31918355722851      1.04167059803290
  O   4.45719217838741     -1.11384131664512      1.93580381155033
  C   0.66635000341310      2.75217640904842      1.09034107975960
  N   -0.26773942197545      3.04324414026016      1.68752484719128
  H   0.98920084935125      2.86460627584433     -1.48784719098845
  H   4.79510984346932      1.06338243397937     -2.29768998186833
  H   6.71449553874136     -2.38050675061450      0.21258597012368
