27
Coordinates from ORCA-job 17166optt
  Br  1.42633322833438      0.09601476197610      3.28066751545298
  C   2.53596652903206      0.45507777310465      1.80539247743322
  C   3.25028725478401      1.65440301915813      1.71977654079464
  O   2.90492729685166      2.73438410257627      2.44884262937531
  C   1.77971768709131      3.42085849789447      1.83802944527249
  C   1.90592855405082      3.69055776957169      0.32823692119453
  C   1.35452143919333      2.60393085679949     -0.61904758426577
  O   2.27730303943094      2.36515572690648     -1.67679811430338
  C   2.07022333328891      1.19548531879409     -2.42530821395550
  C   2.56623907855142     -0.13068441993469     -1.78513400162150
  O   2.29080867670678     -1.18409608659669     -2.28695672175253
  C   3.20632577397970      0.07166299718450     -0.45244771973284
  C   2.48504069068951     -0.32735774117233      0.66478975655845
  C   4.17803731146967      1.06668479455315     -0.27268658187481
  N   4.18034808717042      1.83919120643314      0.80393360569437
  C   5.11665942574527      1.34460164676184     -1.31930060498195
  C   5.87883653228553      1.52903051830613     -2.22492790954082
  H   1.73266950382497      4.36010988889880      2.38275376702792
  H   0.87345782613769      2.84757554684031      2.05973138747761
  H   2.95363274149341      3.86684637524818      0.08221868777425
  H   1.37932403988074      4.62582065230325      0.13530573344978
  H   1.15764639175031      1.67761547320512     -0.07469233354365
  H   0.40026786997382      2.92352317709345     -1.05168419332912
  H   2.60413935579683      1.31738859369541     -3.36881178417387
  H   1.01086765147184      1.03404465295383     -2.65596358631416
  H   1.76941046452690     -1.13716317218582      0.58586451264040
  H   6.56708021648775      1.70833806963102     -3.01678363075604
