26
Coordinates from ORCA-job 17160optt
  Br  3.53721911246677     -1.50640408538950     -1.75404615348590
  C   3.19780433787521     -0.15621534091164     -0.52378222350303
  C   2.10221639369534      0.62800203224829     -0.51963967463179
  O   1.13903914022998      0.56638159080200     -1.45501418106239
  C   0.25865687278925      1.70120267736761     -1.50221512843610
  C   0.96182434890482      3.04866504370332     -1.76432869095852
  C   0.78936966042786      4.15394893380852     -0.70947225091740
  O   1.87817023319222      4.25520967942903      0.20408768677797
  C   1.64007260775531      3.93530813493951      1.54911643482022
  C   2.80183592423158      3.09672799337678      2.08919743317793
  C   2.92007723443238      1.86099509498399      1.25245560238653
  N   1.98103366364230      1.59013903267344      0.42930570801849
  C   4.14853012666443      1.05097252949056      1.30606275012668
  O   5.07328494857023      1.21268417357062      2.04144831256479
  O   4.16044607216047      0.01420173315900      0.40251502066895
  C   1.48199162401983      5.16806739934596      2.35205641921051
  N   1.36163222636015      6.12018640987054      2.97686584999495
  H   -0.32558982468785      1.74065410755284     -0.58112485808328
  H   -0.40990078132640      1.45021251746996     -2.32157213293238
  H   0.58283784435411      3.44528204226865     -2.70775442729136
  H   2.03006029970715      2.88415124484961     -1.91916820343382
  H   -0.14958738877391      4.01975028149351     -0.16282960364489
  H   0.73336567805878      5.11828483409126     -1.21559524271572
  H   0.71604875402457      3.35914676968949      1.64956145235055
  H   2.64682072682924      2.85814127010850      3.14432021145120
  H   3.73774016439617      3.65630390000807      2.02854988954779
