21
Coordinates from ORCA-job 17178optt
  Br  0.76709876855632      2.48266814839113      0.23845698553373
  C   0.07072520794486      0.94655384387174     -0.57771226280187
  C   0.75413991933609      0.16169021514732     -1.41025829577621
  O   1.93877352706097      0.45276683385765     -2.01178397308651
  C   2.12514139845522      1.56128051058147     -2.75972739447827
  C   1.34703194717618      2.60130017651701     -3.13415064326933
  C   2.07737061948891      3.67292733723384     -3.86580131232541
  O   3.19066678783628      3.57875150461267     -4.30703337751124
  C   -0.04295977647190      2.90012830220419     -2.77153947836951
  N   -0.92409824839176      1.99639344929496     -2.70731987978726
  C   -2.15082864399507      2.20328623917251     -2.04167359564830
  O   -2.99026944960607      2.99669639620657     -2.36291954595986
  C   -2.35639161187319      1.16763025671130     -0.96889894117785
  C   -1.32072809369379      0.55729510523997     -0.39477192296385
  N   -1.48342646012692     -0.72594718318770      0.23727641728132
  N   -0.89163513666754     -1.67119356613688     -0.25707115599373
  S   0.14074258354929     -1.43631866584677     -1.70518595480213
  H   3.15852134348488      1.58905186804163     -3.08507334636048
  H   1.50132170639201      4.60950314724751     -3.98664988672152
  H   -0.25403008393753      3.93350438446966     -2.47212496266422
  H   -3.37516630451724      0.85603169637019     -0.77303747311748
