24
Coordinates from ORCA-job 17171optt
  Br  4.19822914810386      2.20522728762988     -2.70622134056244
  C   4.09417405823166      0.73110725253599     -1.56477001155948
  C   3.43603612697592      0.75505384351875     -0.38667828171196
  O   2.84198758922916      1.86409078968216      0.14503854515896
  C   1.41203661830466      1.84378479963545      0.22418238029872
  C   0.91047212777939      2.21040000380572      1.63098847274320
  C   0.78781086824431      1.09728784635105      2.67386856136974
  O   2.03293948398161      0.78143422344536      3.31630871276729
  C   2.93764807927877      0.20687327683199      2.53514720979160
  N   2.62037962539922     -0.37391887938510      1.46741231170621
  C   3.43736327900406     -0.48195287979338      0.36789084809709
  N   4.02056593221686     -1.57614015118110      0.00760219499460
  C   4.72392651418969     -1.60285840118256     -1.18111611043023
  O   5.32689248195570     -2.55479554806091     -1.60279588392807
  N   4.71772006935295     -0.40865083498838     -1.94225494024060
  C   0.90399262866903      2.82629288323795     -0.75581409225507
  N   0.49066860404873      3.59184654489578     -1.50086207583865
  H   1.03247473293843      0.86219117619151     -0.06648240222105
  H   -0.09268351362478      2.62565638379375      1.51197171564318
  H   1.53930470884885      3.01573579852996      2.01720486109966
  H   0.34977602530765      0.19342804507828      2.25000704514506
  H   0.15813293606603      1.44791061074148      3.48772630634841
  H   3.95081577198359      0.32908499677894      2.91937393274540
  H   5.22533610351463     -0.44608906809255     -2.81472795916156
