23
Coordinates from ORCA-job 17173optt
  Br  1.70391360648549     -2.06476484005849      1.51209980380772
  C   2.71152880914686     -0.78572808322629      0.59377368068456
  C   2.12605145148104      0.31192472113400      0.07344481797278
  O   0.76924050191838      0.33534542865490      0.08911375602647
  C   0.20719869025622      1.57410286547624      0.11489588531051
  C   0.66875460737873      2.50392084609589      0.93210061416055
  C   0.73591476926020      3.86151167147960      0.34943263331994
  O   0.07190489623865      4.83270616502447      0.55061925065277
  C   1.85276672090355      3.85166802463369     -0.71216958551650
  N   2.07348154646174      4.89633854664886     -1.39547633320338
  C   2.73934463225470      2.68781227090660     -0.94720389044452
  C   2.93474326205691      1.37815528196215     -0.61180778607267
  N   4.17118010594305      0.87230376505801     -1.04205507079112
  C   4.88178886487040     -0.21092978068944     -0.55709089993421
  N   6.06090272770963     -0.52755549893342     -0.87975305789132
  C   4.14819717523395     -1.08274181777542      0.44171163072553
  O   4.70133998080194     -1.97161784555197      1.02063561933350
  H   -0.53590637097752      1.73123969563398     -0.65770028936930
  H   1.44221460146799      2.24519804014222      1.64927580989343
  H   1.42814524168138      5.63526592959999     -1.10059882722980
  H   3.55821464562335      3.06770530182218     -1.55270892302845
  H   4.72753108787898      1.52588795638261     -1.57280440362977
  H   6.46754844592433      0.10825135557962     -1.56573443477671
