26
Coordinates from ORCA-job 17170optt
  Br  1.07488017356856      0.11721984340807     -0.26692338855062
  C   2.93465430931415      0.03068491655926     -0.10307302836794
  C   3.72421500731186      1.12793318178671     -0.11978709241857
  O   3.30535881826439      2.39349774536146     -0.27915198084471
  C   4.41087822043319      3.28794588792424     -0.06127143312787
  C   4.33700909989234      4.38754533998061     -1.09656465040624
  C   5.47804577404728      5.35925975223470     -0.97969063636877
  O   6.39936793270070      5.20983368851368     -0.22448743965665
  C   5.66006267846015      2.40294576964027     -0.13946882321930
  N   5.08831305017461      1.07722893920448      0.00594020829756
  C   5.86046069559583     -0.09368581720408      0.10490945946270
  N   7.13547607690687     -0.12890607560968      0.14879868421353
  C   5.02290142168869     -1.26988537016186      0.14574344420774
  C   3.65806921892829     -1.18610060724707      0.03892464480216
  O   3.10431982530126     -2.40483983550094      0.08926444068348
  C   4.13533781958719     -3.29691298690920      0.23262687718253
  C   5.32452705137398     -2.66325844283935      0.27223111863810
  H   4.30863513811995      3.70588375455322      0.94235477913195
  H   3.39264750165875      4.93244782005179     -1.01514657878630
  H   4.35501419263290      3.95935817970911     -2.10513721476148
  H   5.43514558612473      6.23803263478112     -1.64788107377792
  H   6.36310348634260      2.62660438006224      0.66039937405964
  H   6.18157162750081      2.49579946026093     -1.09734910802792
  H   7.56404731465738      0.79045720653297      0.10255888820995
  H   3.84582834786571     -4.33084723845247      0.28855793033806
  H   6.30012963154775     -3.10524212664024      0.37762259908688
