25
Coordinates from ORCA-job 17179optt
  Br  1.08998973964645      0.24939600832383     -0.60652617005776
  C   2.94156769370349      0.11124324729599     -0.40364856701200
  C   3.53998494107376     -1.09720726491242     -0.42391120519783
  O   2.91230716826344     -2.25846630939600     -0.63288593150904
  C   2.33531902268039     -2.86843913916194      0.54347612643637
  C   3.24988212548279     -3.93801628364383      1.10884187336862
  C   4.68354752827278     -3.47880769894331      1.31806848800090
  O   5.39595247378972     -3.48231942166202      0.07619457020210
  C   5.61648735758536     -2.38023811309769     -0.63626849055245
  N   6.38138744437854     -2.29415590839720     -1.62259132811822
  N   4.90960951288640     -1.18777273129292     -0.23872167295416
  C   5.60204199328132     -0.02716036167022     -0.00882799784823
  C   7.02394668676803     -0.15575202842304      0.48176966728270
  O   7.40811912245313     -1.13481297995024      1.05133985304414
  N   5.10535264076977      1.14717695146996     -0.00373314337728
  C   3.73075884435164      1.34492914555041     -0.26983624694615
  O   3.26442482456048      2.44840785349989     -0.35776089177299
  H   1.38289868466047     -3.28521131199192      0.22285673344578
  H   2.13958744007021     -2.08429395219628      1.27887178891715
  H   3.26671892695050     -4.80967768504827      0.45222295143110
  H   2.83934680074423     -4.26131649010332      2.06881541229157
  H   5.22262499629074     -4.18606655979491      1.94487391494307
  H   4.74838213499571     -2.49532119965334      1.78702785063647
  H   6.87550660696762     -3.17134909253483     -1.77467910965217
  H   7.62125528937298      0.75823132573367      0.35503152499830
