21
Coordinates from ORCA-job 17172optt
  Br  1.08266055726510      0.51997486223920      0.28950272852624
  C   2.93063248857758      0.25796374551150      0.18015077158411
  C   3.79360339591746      1.27570623645519      0.09903322199601
  O   3.44813883211709      2.60327666602545      0.08480843888607
  C   4.61444077759752      3.30152027838510      0.00245706222516
  C   4.46734980191642      4.77646225343433      0.00304402965440
  C   4.12769678003446      5.32219264050033      1.37705748929715
  O   4.07408702773832      4.68553749330009      2.38285153263792
  C   3.87344268610139      6.78437408999937      1.38498816429305
  N   3.69025925154952      7.91415469167226      1.33972886689133
  C   5.70205343129286      2.51649587356827     -0.04992461384155
  C   5.22875020975236      1.15160188465752      0.01191702639313
  C   5.88332544232505     -0.03228419561190      0.00115077428797
  Br  7.76570335880790     -0.03973892949172     -0.12794324330236
  C   5.23639967767697     -1.33751239045244      0.08917143352332
  N   5.75073057472997     -2.49336863249558      0.10509371577125
  S   3.44963293320132     -1.38823452798144      0.18886676777410
  H   3.68146028183392      5.09069995280027     -0.69013469276625
  H   5.39244948576277      5.25552087937231     -0.32609037163954
  H   6.72707471154038      2.83913820646146     -0.11371988409813
  H   6.76610829426158     -2.45848107834959      0.04499078190663
