25
Coordinates from ORCA-job 17175optt
  Br  2.48210233840760     -0.80240094462125     -1.88583183147315
  C   3.03043130886462      0.24464140416586     -0.43322487256659
  C   3.09232281152512      1.58195535725917     -0.47087699631322
  O   2.78540633856580      2.32169708030101     -1.56502000553003
  C   1.39180379457681      2.48316878446106     -1.86634887577298
  C   0.71677683749098      3.56082526319156     -1.04110280094507
  C   0.73640935937427      3.34206666759213      0.46984297952484
  O   1.83585645155906      4.02299882473744      1.07248643984362
  C   2.87249411147083      3.30905221283658      1.59126926391484
  N   2.53018779164801      2.20634788712525      2.55484409823361
  C   3.28709799829601      1.42638116828841      1.89854345019661
  C   3.45020304750201     -0.05182415494766      1.92461103294218
  O   3.62996396140705     -0.77165401637234      2.84241951914313
  O   3.38311987221968     -0.54795332422147      0.63695232790634
  C   3.68773334214195      2.26040656190294      0.71893848074953
  C   5.15502325847759      2.60765303486002      0.53616147741038
  O   5.82474708435091      3.00375748096176      1.44538740290225
  H   0.88560480268031      1.52464839142176     -1.73128685205645
  H   1.36177786338731      2.73699350516116     -2.92467234656260
  H   -0.32261262622653      3.60377885742154     -1.37703358609551
  H   1.16203241634592      4.53563583168806     -1.24798299617449
  H   0.74807759270115      2.27943057513221      0.73016223223273
  H   -0.15596072787358      3.77549291790864      0.91926429565238
  H   3.55916924390738      4.01310366164166      2.05764515995448
  H   5.56823172719972      2.48079697210448     -0.48014699711680
