19
Coordinates from ORCA-job 17180optt
  Br  1.04734320294401     -0.39394659440037     -0.08368953578855
  C   2.85768762911738      0.00866513870349      0.01434449980220
  C   3.38212754184722      1.23686054118686      0.01931972760636
  O   2.78978318973497      2.46701529226137     -0.04736837169287
  C   3.83978473656627      3.32523443818979      0.01714917970488
  C   3.49000888855338      4.76646584669569     -0.00118855104550
  C   2.91665960671858      5.19844568777624      1.33495459195037
  O   2.85343834237421      4.50964860197787      2.30550688512192
  C   2.42304663150165      6.59332790189927      1.34848487381386
  N   2.04799271356855      7.67455206627960      1.30544807636973
  N   5.01097706702568      2.81547278899413      0.10625438309842
  C   4.79014162944657      1.43805257419511      0.11493804842888
  C   5.63968029354040      0.38863831440426      0.19898703077383
  Br  7.48389513880941      0.57558346400866      0.34169218386622
  C   5.09029897472533     -0.96119557763004      0.17366857227200
  O   5.67874223402882     -1.99223979858475      0.21470253475094
  O   3.67873368805073     -1.03582402613902      0.08853643794823
  H   2.75353454893124      4.97760097714503     -0.78055770565508
  H   4.38212394251553      5.35964236303680     -0.20818286132583
