24
Coordinates from ORCA-job 17186optt
  Br  1.13481522397084      0.06563388698219     -0.27822182161976
  C   2.98638701386091     -0.12792639537794     -0.15038878028623
  C   3.57770718219417     -1.34093456785619     -0.08913536422108
  O   2.85265741908130     -2.49960797275905     -0.09597334063785
  C   3.61307868154364     -3.63191553994382     -0.46870095126571
  C   2.73147585799891     -4.85315168623656     -0.30709701865381
  C   2.26980819381136     -5.14645201559791      1.09989548004104
  O   2.70379513252662     -4.62201330194616      2.08582093773764
  C   4.89738045263461     -3.63070424903057      0.37075043107652
  O   5.68240160254551     -2.48919779100005      0.04970615863980
  C   5.01637390871472     -1.31422792487703      0.00121454334129
  N   5.73385549541759     -0.25434353543168      0.00575265714837
  C   5.13434439575261      0.99196392696169     -0.05509433431264
  N   5.72019307313128      2.11602081170341     -0.05201813790905
  N   3.72885714314958      0.99874459785994     -0.11714188839507
  C   5.69972479650006     -4.82193412165350      0.08026896375071
  N   6.25795247453735     -5.79076312300060     -0.16365429124568
  H   3.91597876318813     -3.53923048850627     -1.51907892332605
  H   3.24991857444065     -5.74442729132273     -0.67593980719314
  H   1.84617188291887     -4.73343298636300     -0.93665333614312
  H   1.48301824425689     -5.91918599575320      1.17683870776787
  H   4.63625118600059     -3.62414582106861      1.43042355587994
  H   6.72400634618712      1.97559742639461      0.00255023184488
  H   3.28884695563663      1.90663415782303     -0.14712367201888
