22
Coordinates from ORCA-job 17187optt
  Br  1.06716130840888     -0.03874523197136      0.00164875875627
  C   2.91645507624282     -0.19462573210097     -0.07958807944676
  C   3.56051546090707     -1.38331805013543     -0.12001680291637
  O   2.86124273787855     -2.55136148741480     -0.09043844264383
  C   3.60182174487754     -3.69702344807598     -0.49004742896491
  C   4.91847295186279     -3.78249988806212      0.27431097915957
  C   5.78461838458693     -2.59363757893234     -0.10848485185706
  O   6.27540955465212     -2.74651950780321     -1.44662198842632
  C   7.38358058623480     -3.49766050928208     -1.57012515912345
  O   7.93222193217203     -4.05770738668907     -0.67304276768296
  C   4.98768387376567     -1.30452289873890     -0.11237970534997
  N   5.65301393514421     -0.19841951644655     -0.10446863697390
  C   4.99169411054896      1.00739346212345     -0.11758635209952
  O   5.47536598047380      2.08697238477006     -0.15287176079225
  O   3.57229237955607      0.94973474135351     -0.07020009174327
  C   2.75501774401541     -4.86549702899364     -0.22776846075538
  N   2.13951095448198     -5.80757172149870     -0.02124775043198
  H   3.79686409877590     -3.64709202146486     -1.56757710561701
  H   5.44108177996408     -4.71063285254948      0.04764793579582
  H   4.70436140565393     -3.76396803087928      1.34468761375328
  H   6.62904315707926     -2.48277326103825      0.57039065875581
  H   7.69657084271713     -3.51552443616997     -2.61922056139582
