26
Coordinates from ORCA-job 17182optt
  Br  2.03503864679056     -0.51285507538651      0.24500690605989
  C   2.68377426440305     -2.33638576756139      0.22545655563671
  C   3.39111183910429     -2.64193172929867      1.38167074180097
  O   4.22846280248783     -1.73042237682212      1.94110485462767
  C   5.24624317429299     -1.66937573517477      0.97620295883350
  C   5.10335707748156     -2.05646322059500     -0.30057461920443
  C   6.29890467969093     -2.17580355266551     -1.19684096860939
  O   6.56274897637551     -3.53770846280890     -1.59807740997950
  C   6.49069944810671     -4.50569179676040     -0.63785652854741
  N   7.46588158897535     -4.97965729684273      0.00382446412969
  N   5.19080445322673     -4.95006858978359     -0.47254334958019
  C   4.69628919392506     -5.57529618755392      0.67634306066448
  N   5.29832364240805     -6.38866501399736      1.42266161132439
  C   3.34524687407583     -5.04613493790031      1.12439650276962
  O   3.66943267015545     -3.82255026173838      1.83271186230868
  C   3.75086939836790     -2.41282710380542     -0.84900467191069
  N   3.60117926573735     -2.60820291850905     -2.08888374278792
  H   6.17379163294658     -1.33435706975690      1.41726408550804
  H   7.18862994477373     -1.77610243524600     -0.70505981740425
  H   6.12853791400791     -1.65435196385239     -2.13575281511305
  H   8.32011173939054     -4.48439311573159     -0.23507959710767
  H   4.53323435654507     -4.53734698179220     -1.11620800032339
  H   6.23630439498162     -6.58529642617569      1.07165812471927
  H   2.92335326697053     -5.72035057744835      1.86177114087477
  H   2.64521330813072     -4.82664149848198      0.31798060996357
  H   2.62245544664804     -2.80211990431082     -2.30217195865334
