23
Coordinates from ORCA-job 17181optt
  Br  1.04550284884524      0.03437454729784     -1.13588613734848
  C   2.82797367894593     -0.04124574150956     -0.58502721849337
  C   3.46158271033029     -1.20894388846690     -0.37008946988777
  O   2.82322033634652     -2.39254215885705     -0.57075560777945
  C   2.13995927194630     -2.88001010335014      0.58901764544696
  C   3.16817133581428     -3.34057822500143      1.61587454040378
  C   4.11020714828571     -4.25163257397907      0.87238655964641
  O   3.93996697695395     -5.43763747230260      0.82257747648008
  C   5.31666758772725     -3.66991373051325      0.12424332779564
  N   6.18381513284765     -4.42767780979185     -0.38437198303531
  N   5.60801883361361     -2.29656228244879      0.16958298939464
  C   4.86044173831455     -1.16480899301601      0.00393246391590
  C   5.44386192222711      0.06949432881785      0.14293049535171
  Br  7.25068436167813      0.24997528267346      0.61402428120142
  C   4.73707819004768      1.30604735237434     -0.07487653936738
  O   5.14677340211500      2.41948513261853      0.02516420149061
  O   3.39325669176879      1.14762600739553     -0.44924600200435
  H   1.54535588181055     -3.72305396892216      0.24236561067783
  H   1.47950719258928     -2.10769448055610      0.98781450041419
  H   2.68517203017848     -3.90872479867870      2.40864712084445
  H   3.69349260133076     -2.48751154813157      2.04783461181904
  H   5.90367021257579     -5.40004680583732     -0.24652358956514
  H   6.60661991370712     -2.13941806981503      0.08838072259858
