28
Coordinates from ORCA-job 17197optt
  Br  1.97922259274975     -0.51879044434673      3.13006769716453
  C   3.09490355149180      0.08509865548011      1.73148780131816
  C   3.31115404378688     -0.72564556089158      0.61816485056905
  O   2.74783169883931     -1.97560238986220      0.54563447958079
  C   1.38793415485310     -2.03632173957637      0.13416807204349
  C   1.22847260012860     -1.83988367150323     -1.37589209213868
  C   1.33431902623005     -0.36022794288256     -1.71330742818324
  O   0.51172839814934      0.41533987403778     -1.27187318643251
  N   2.34175278411441      0.04263234921760     -2.52959714268475
  C   3.56140770788898     -0.68515158541597     -2.83801148896221
  C   4.38067298548316     -1.16762791861049     -1.61221248310441
  C   4.17801131613869     -0.30960173733108     -0.39362816706952
  C   4.80286936245337      0.92704884089803     -0.26966511608737
  C   4.56978413177368      1.73869483569490      0.82849744995012
  C   3.71173645380788      1.31998536268523      1.83457473943623
  C   0.90003860448412     -3.36392631434950      0.53602848745298
  N   0.49874225176146     -4.39919680225299      0.81341896465288
  H   0.79134198531644     -1.27879935368524      0.65161460066005
  H   0.21603475863424     -2.13590504148076     -1.65260062795476
  H   1.93432561561943     -2.47605800572156     -1.90711124909496
  H   2.36886491777248      1.04669069703171     -2.63240568700113
  H   4.16705480362246     -0.00350665390925     -3.43275430117595
  H   3.33794262495063     -1.53935590483738     -3.47974712485206
  H   5.43595134391847     -1.16738940700892     -1.88963263915188
  H   4.11591848308919     -2.19458261479249     -1.36935356961972
  H   5.48451709156610      1.25154241645746     -1.04762325803300
  H   5.06144750110391      2.69875226260896      0.91147917319668
  H   3.52801921027203      1.93778779434654      2.70227924552121
