25
Coordinates from ORCA-job 17192optt
  Br  1.87318848238465      0.31824560110201      3.02226300589589
  C   2.86267430357227      0.48188550732412      1.43942375345740
  C   3.52422268185925      1.62868624007247      1.15786770795967
  O   3.39591947466001      2.77643301338897      1.85400007145711
  C   2.88428766586621      3.83900546388370      1.02680160148173
  C   1.38387608925707      3.72472863932635      0.71969392107756
  C   0.85553054870564      2.50233924683449     -0.00333775425785
  O   -0.06994212197674      1.85900374389003      0.41958571715648
  C   1.52799450824117      2.05992986267424     -1.33302694818333
  O   2.33118401835033      2.76764435566846     -1.88684327945194
  N   1.16236493899766      0.79008881216138     -1.72480697252426
  C   2.21190355643321     -0.20539417340315     -2.04207717435863
  C   3.10197200018428     -0.17117403246520     -0.82182315880501
  O   4.09000733907513      0.72996820975877     -0.97981003300339
  C   4.42951438348217      1.63659894885668     -0.00088254295335
  O   5.35578432947601      2.36507373312663     -0.17286226324595
  C   2.66500147938742     -0.50160408867470      0.40867512961829
  H   3.46755032987195      3.90381823082812      0.10915531388467
  H   3.04339291771237      4.74422039115456      1.60751259485410
  H   1.14560562941010      4.58774207599542      0.08788691635330
  H   0.80131464929780      3.79814392631899      1.63766324593308
  H   0.46810004342443      0.41989002178553     -1.08430749644939
  H   1.73074066510110     -1.16684160983480     -2.19929368322870
  H   2.76117445588225      0.09249801519222     -2.93084371647585
  H   1.88563763134424     -1.23893013496533      0.53538604380835
