21
Coordinates from ORCA-job 17191optt
  Br  1.00753030627788      0.24599740256834     -0.19689036933461
  C   2.88280709980200      0.14362149106604     -0.08024694528177
  C   3.59735295528648      1.26009797750067      0.16388442087147
  O   3.01098526404958      2.44094670911752      0.37001358979412
  C   3.60405501397955      3.52859493263725     -0.34806914423756
  C   5.01853682684154      3.72938643277440      0.14822755224700
  C   5.10039294264916      4.61412351915407      1.39808157984567
  O   4.23274694317502      5.37713838371518      1.69451506361055
  C   5.74559875891863      2.43249322110108      0.41317168690309
  O   6.88975173840179      2.39935299715601      0.75874656471685
  N   4.99773345587249      1.24881435572977      0.22931303386262
  S   5.90736008922735     -0.20818979359819      0.35822565930350
  O   6.18717679215187     -0.43852640875238      1.73348520253699
  O   6.94259508544674     -0.15306750943820     -0.61548341856745
  C   4.66364700270988     -1.34537069471839     -0.18101134957248
  N   3.43428248678810     -1.09123773424307     -0.29664484580692
  H   2.99219335892443      4.39945144005757     -0.13083879507127
  H   3.57643017213115      3.30441634893935     -1.41621207171282
  H   5.62940600337758      4.24451776962716     -0.60179399643749
  H   6.03334079925188      4.51672821127981      1.97765672936912
  H   5.07207690473683     -2.33228905167403     -0.38213014703861
