29
Coordinates from ORCA-job 17206optt
  Br  1.22741283027506      0.21767406439784      0.03361163260172
  C   3.12189688335920      0.15843559437741     -0.00920719062796
  C   3.82023700592782      1.36803253767140     -0.01869515782365
  O   3.14093963444445      2.54254419553561     -0.00131714229983
  C   3.93035298059046      3.64442907634559      0.41126282199071
  C   3.10404209141789      4.89082740202186      0.19500223778147
  C   1.75523939535551      4.79477974622773      0.87193214377421
  O   1.36172668650476      5.60129960249101      1.66740362660313
  O   5.09724275543699      3.72956097997419     -0.34385199314351
  C   5.96671073636040      2.63849137530940     -0.09976518469294
  C   5.21066817227195      1.33932050571674     -0.05127924544788
  C   5.82151719350606      0.09602862146882     -0.04441908580921
  C   7.27926355256961     -0.27232634922966     -0.09575598834609
  C   7.26741494806347     -1.76132880157942      0.31801393115157
  C   5.87240526417246     -2.28849000782191     -0.06757914266539
  C   5.02804425991435     -1.04289312750861     -0.03249600886709
  N   3.69947037847310     -1.01979560130072     -0.02409992884329
  H   4.18430384124796      3.49307122252297      1.47071028841725
  H   2.94808261312632      4.98786688682471     -0.88334474403565
  H   3.63788091286473      5.76318708275493      0.56628798544019
  H   1.13647726412830      3.92632076299485      0.58655179624738
  H   6.51698427212049      2.79300115570489      0.83683151870181
  H   6.68776235651826      2.62825736423114     -0.91725576042678
  H   7.90486545589387      0.33904624933492      0.55608608605161
  H   7.65909891393643     -0.14781656595058     -1.11512049001510
  H   7.38717863280140     -1.82701888803873      1.40031532856842
  H   8.07707149087908     -2.32629281868509     -0.13954786280833
  H   5.49872685447717     -3.05922987965162      0.60453722383046
  H   5.86598262336235     -2.70498238613969     -1.07881169530723
