24
Coordinates from ORCA-job 17209optt
  Br  1.33720563830087      0.63888334569329     -0.24544003471550
  C   3.18565246268739      0.23280770610585     -0.23141545813574
  C   3.58299835493935     -1.07939194978230     -0.51782754204574
  O   2.69346255864539     -1.99682320253321     -0.98000230200425
  C   2.12255300605618     -3.02351563085251     -0.14875111552299
  C   2.72208364087925     -3.09601551160668      1.24808607152973
  C   4.21518829724968     -3.30111302236689      1.26451843277634
  O   4.91256697915880     -3.16823088126366      2.21192491203415
  O   4.73734696962355     -3.69124721178200      0.03210384677067
  C   5.45869638432041     -2.73336413647658     -0.65239175181373
  N   6.43671515222791     -2.99969154176120     -1.38269103786239
  C   4.95037105691369     -1.34784906028320     -0.45908396514894
  C   5.83546131486551     -0.31698342699999     -0.17506493277054
  C   5.32233374462342      0.94336876355791      0.06699700673929
  N   4.01590834416472      1.20512936378301      0.04979193115049
  C   0.66900732815744     -2.86078617003114     -0.06661393005266
  C   -0.52120519637334     -2.79539449916048      0.03008361705494
  H   2.33355159622624     -3.95709248321611     -0.67262861895435
  H   2.25723807170591     -3.92771837366859      1.78133062034623
  H   2.50416517384591     -2.19370168617806      1.82240826504980
  H   6.65806349191789     -3.99454984240175     -1.36223494083844
  H   6.89737042100268     -0.51657328014908     -0.14156769682371
  H   5.97355610827651      1.77787093026311      0.29522909232345
  H   -1.57929089941539     -2.71501819888974      0.11023953091392
