21
Coordinates from ORCA-job 17204optt
  Br  1.69739113614818     -1.36350282732230     -1.87747043608069
  C   2.74883292566191     -0.34303894927100     -0.74437907468102
  C   3.25205654055218      0.86334847306205     -1.07360639244702
  O   2.82269175019620      1.50659767601259     -2.21785939703416
  C   1.64382344924279      2.11772307987178     -1.77838187813504
  C   1.67558525234205      3.23051534604534     -1.06168105262021
  C   0.60937940192663      3.37139785967716     -0.03407816719360
  O   -0.57078407689400      3.27462554734743     -0.19221415712412
  N   1.20506518367621      3.57931465640968      1.24150940063450
  C   1.96666276410301      2.75195975803745      1.78655171193729
  O   2.19203452461188      1.46681275301541      1.33838783281636
  C   3.54562868102375      1.14268500497688      1.25287203013353
  C   4.09408005356710      1.66221824249310     -0.08622160733123
  N   4.95633186373115      2.49259162775187     -0.44030532891084
  C   3.82170440869674     -0.18748382613736      1.14911988197757
  Br  5.57495536177636     -0.82453509755849      1.17113707012302
  O   2.92894091283555     -0.97745448728893      0.49587298390688
  H   0.75408584208378      1.50643215149648     -1.88740286134762
  H   2.60622738330216      3.76302207583183     -0.92243525851344
  H   2.49670632070204      2.98992601464204      2.70593435108935
  H   5.43660032071429      2.90284492090699      0.35965034880048
