25
Coordinates from ORCA-job 17213optt
  Br  5.60468600290313      0.98014112002778      1.62435765013880
  C   6.10746420711745     -0.83322908175559      1.61301836867810
  C   6.56352468674367     -1.47497578113262      2.75605940296261
  O   6.65427283594951     -2.81516255037563      2.72095207833970
  C   5.96678931419266     -3.37712571821351      1.60958755933548
  C   6.64682031731059     -2.68082756165576      0.44836797958925
  N   6.39800382591551     -1.40599027419573      0.42317380910758
  C   8.03146080167602     -3.13584261780032      0.22066564331536
  C   8.99898043679127     -2.21311444482985      0.52358691650761
  C   9.55765382226146     -2.73062780198481      1.75149202647726
  C   9.31773683755052     -4.23586785761324      1.76475254341866
  N   8.40410260951831     -4.41538498158296      0.62162493116048
  N   9.77459826616726     -1.92026305036869      2.72011945083249
  C   9.26318267671695     -2.24150035297711      3.99049548924053
  N   9.53002288106518     -3.19179079531765      4.77937597460231
  N   8.39425552313672     -1.19684303139738      4.37581099601724
  C   7.30718289410774     -0.82103717702933      3.84441902518567
  H   6.05919575586080     -4.45282404330363      1.68642465118269
  H   4.91634088309963     -3.07797811980989      1.64771376179520
  H   8.88571961051093     -1.15104353506590      0.38780389233631
  H   8.85091500154479     -4.56122544453684      2.69907609515685
  H   10.26370725127593     -4.76445639388081      1.63360302109526
  H   7.66228394630449     -5.07959713688655      0.76216972908126
  H   10.25708827890732     -3.78163527175708      4.38095918851655
  H   6.89101133337205      0.12720190344314      4.17938981592674
