23
Coordinates from ORCA-job 17215optt
  Br  7.02692584462225      1.35868100802423      0.63219281111510
  C   5.27181549400065      1.84316874264977      0.15273298477671
  C   4.95847681436167      3.06903555429018     -0.32223698996379
  O   3.63429187430407      3.23444393440456     -0.62777663334205
  C   2.78506214117092      2.66003839963191      0.28945347026674
  C   3.08984856355399      1.23613054831517      0.43542870973744
  N   4.31330314096332      0.86226855055220      0.35083844176793
  C   1.95087213628089      3.44683628092143      0.98119477937366
  C   2.18759730254161      4.90056125132546      0.87288365676026
  N   3.48550500618384      5.20284744766181      0.74806111151744
  C   3.78464557878793      6.34634497936426      0.21702450112177
  O   5.05117348955706      6.52815824489704     -0.21903182878197
  C   5.91937725282231      5.50252946133063     -0.48500660560848
  C   5.89390876984671      4.16001372077398     -0.56785741284257
  C   2.84006878486310      7.36312054017670      0.06161094140572
  C   1.55517795747289      7.01550425377548      0.42845571365369
  N   1.19770428141982      5.77195686951494      0.78092658082542
  H   2.32297936047647      0.49936379762896      0.65125592627019
  H   1.15326770777391      3.03952472556049      1.58597367993585
  H   6.86904661503435      5.96822658053094     -0.70933481944461
  H   6.88086578171715      3.78975499594686     -0.81981638948334
  H   3.09470305891257      8.33438778320167     -0.33407050360077
  H   0.75538304333246      7.74510232952128      0.37909787453965
