24
Coordinates from ORCA-job 17218optt
  Br  6.07596320094975      2.39298647343992     -2.60811416927384
  C   4.64571575321928      1.17571297361909     -2.55489690715426
  C   3.58198750430895      1.26510895346588     -3.38099406249504
  O   2.59561914140143      0.31608171389842     -3.20350330106380
  C   3.02352912896098     -0.92665518115976     -2.83221557006092
  C   4.03820809049568     -0.87005354950072     -1.77591896085653
  N   4.78165951738806      0.15807517376104     -1.62371801322736
  C   2.55814807300894     -2.06167353357237     -3.36958284432134
  C   1.58030565624125     -2.30831761919739     -4.45990496069588
  N   0.93872227849516     -3.40358144573389     -4.39042203980992
  N   1.39624035866197     -1.36938662495377     -5.48397724671678
  C   2.14879908173686     -0.21751581800851     -5.57711430783783
  C   1.72100707218054      1.01187891170749     -5.86512184929833
  C   2.55488454690853      2.15886189522779     -5.50415762166030
  C   3.37322508359011      2.24964178357683     -4.42656673086728
  C   2.45041881068297      3.32735251048605     -6.33952923296270
  N   2.33939366664292      4.24898660812814     -7.01457774435542
  H   4.16960014768634     -1.71854307510292     -1.11145672991268
  H   2.87628645046668     -2.97801580662511     -2.88935174458533
  H   0.30506656409888     -3.52764909343338     -5.17949519724686
  H   0.46595848577158     -1.35148499890433     -5.87629786641666
  H   3.18673534090337     -0.37024241114785     -5.31351744919371
  H   0.71186016086992      1.20568810800378     -6.20976944224768
  H   3.96866588532982      3.14674405202556     -4.32279600773952
