23
Coordinates from ORCA-job 17226optt
  Br  1.85616653317201     -1.19742784003768     -1.58529425615698
  C   3.39120145352215     -0.35372053990301     -0.92283852762978
  C   3.72688473880750      0.92002124448377     -1.14966926275633
  O   4.93685948141730      1.33980121442270     -0.57752510150181
  C   5.95017534095454      0.38247604395717     -0.60999080523401
  C   5.62141746344715     -0.89001464513103     -0.36257433301248
  N   4.28368318895572     -1.20228813806885     -0.24413275305185
  C   7.32235037970728      0.74537486514517     -1.08248975202503
  O   8.32866609355755      0.21162380335023     -0.70490013127928
  C   7.14491104896147      1.71719117199550     -2.22362702324621
  N   6.88063757465475      2.92971542044956     -1.99251436584468
  C   5.78677874216685      3.51328819875775     -2.61658769415436
  N   4.83663348578932      2.70412420091577     -2.84762604527764
  C   3.48814487872453      2.84867283809690     -2.68068524664091
  C   2.91402259321624      1.94693069565341     -1.84809383241689
  C   1.52459638733556      2.05181871244334     -1.53587128480027
  C   0.36189977524681      2.15933675568740     -1.26103772348797
  H   6.35516771710491     -1.68104386610340     -0.31351969485551
  H   4.02333430871138     -2.17309479716955     -0.19148467328494
  H   6.86859853294310      1.23767713120541     -3.17044799316564
  H   5.73997488364060      4.60228602705524     -2.60491174436697
  H   2.90184641247773      3.64830961851098     -3.12932000469075
  H   -0.66995101451453      2.24594188428321     -1.01785775111969
