22
Coordinates from ORCA-job 17223optt
  Br  5.03588458017668     -0.39836112727561      3.48526781277819
  C   5.44405593971717     -0.18234909444629      1.67519356007497
  C   6.58043722355391      0.41956894780658      1.24758369243405
  O   6.59896886794310      0.68155516981312     -0.14799304746525
  C   6.35679422719993     -0.48529071814300     -0.83319301734203
  C   5.24699240508195     -1.26527179950539     -0.29984396055047
  N   4.67416980741826     -0.96128208755334      0.80874407971651
  C   7.17792497364561     -0.79848475583995     -1.87104020319593
  N   7.79870315227439     -2.04871116611447     -1.74345488468706
  C   9.05547692480023     -1.93283565522747     -1.84336199818843
  O   9.86450976369679     -2.47893154290626     -0.85022672332022
  C   9.75320493996086     -1.59702627882325      0.20009091582562
  C   9.18868882613258     -0.37665157792796      0.18868610960588
  C   8.81801238156744     -0.13171324848508      1.57328888326738
  N   9.56268407237072     -1.01960033395260      2.42396880076648
  C   10.02966843370305     -1.91293740570509      1.63230164809949
  N   7.70208116828593      0.32273682283414      2.01624884545035
  H   4.82295354007961     -2.05211344889158     -0.91327525181265
  H   7.73059132126568      0.01077686322932     -2.34478734475755
  H   9.57898391390687     -1.16933638496141     -2.42547588572531
  H   8.85035450588193      0.23156354112463     -0.62101907518329
  H   10.55085903133718     -2.79430471904901      1.98329704420927
