22
Coordinates from ORCA-job 17225optt
  Br  2.74286926210388     -2.72083424301275      1.20885844604491
  C   4.28907458284250     -1.75145028669114      0.83603391586120
  C   5.54860072679173     -2.22314258205056      0.87029906453661
  O   6.50771278090718     -1.33801984873316      0.39722075229744
  C   6.38371009616872     -0.10406895836597      1.03107821339385
  C   5.15964990181458      0.42649675659874      1.01972156652451
  N   4.12433592243591     -0.40140422140368      0.57672667221118
  C   7.49017284589714      0.37757188221106      1.91487478777634
  O   7.61260886064215      1.54283803082859      2.19476129164590
  C   8.22251302830432     -0.74259615117395      2.58381590985494
  C   8.68150081273907     -1.77500413683539      1.89719954310737
  O   9.04259712943459     -2.96561104562992      2.49763640348677
  C   8.27234655500690     -4.03719287508379      2.12451678276289
  N   8.40327684952779     -5.19782330851537      2.54720407357309
  O   7.35685655215838     -3.67425253198382      1.17693966473897
  C   6.02525019953590     -3.47163567681480      1.50091554725046
  O   5.39798640487037     -4.20134672602496      2.19481132734194
  H   4.91722411978062      1.39180992602515      1.43744553455852
  H   3.18149258250848     -0.04767995315604      0.58308575593879
  H   8.20390697568253     -0.74468657529599      3.66746836714734
  H   8.75100053284643     -1.78204193406328      0.82040602690805
  H   9.16431327800079     -5.25392554082892      3.21998035303891
