23
Coordinates from ORCA-job 17227optt
  Br  4.14888712570440      2.31891678796837      2.09761315025402
  C   5.10732683120791      1.36816388052083      0.79391974642807
  C   6.15874825560949      1.89494994475656      0.15005376762929
  O   6.83548006389440      1.10161512819613     -0.74427145642825
  C   6.77054069811945     -0.24901368430759     -0.55391577544004
  C   5.48029366526965     -0.70799131735508     -0.04788285323689
  N   4.67619689909497      0.06759178123791      0.56844384930866
  C   7.78446063590042     -1.08231545492928     -0.81884246962414
  S   9.43554504317171     -0.83518962055255     -1.36592739466196
  C   10.13023796206238      0.49988468163615     -0.34084145484828
  N   11.20176910533142      0.35929152835257      0.29931707066111
  C   9.35798360632742      1.74851628926145     -0.38563759802133
  C   9.02776487519063      2.45272775793351      0.69115107372460
  C   8.00741321545738      3.50614383131950      0.60668092202080
  C   6.71916740815666      3.25639844432473      0.31357496137870
  C   5.81326655609118      4.36898363955580      0.21305969914084
  N   5.12081552356079      5.27661790235218      0.10247301592285
  H   5.19865577365330     -1.74638350796559     -0.19733306852470
  H   7.55176900940660     -2.13610194582753     -0.71939353746585
  H   11.56150140689112     -0.59379400575444      0.25432380991446
  H   8.92894769027407      1.99824029028436     -1.34574600673744
  H   9.47057700336847      2.22912026856101      1.65744341943201
  H   8.28865164625604      4.53262738043096      0.82073712917346
