22
Coordinates from ORCA-job 17235optt
  Br  2.63824681334514      2.85940504186473     -0.68544877063215
  C   4.14095674938798      1.78588395692668     -0.41101831377583
  C   5.41115525540051      2.21260776118281     -0.53874895874866
  O   6.43049425757739      1.36075097904712     -0.27146771728335
  C   6.23114214165308      0.09803501080886      0.17715009534258
  C   4.82850493074673     -0.32055881256064      0.18969600125259
  N   3.86198925245202      0.47228057011952     -0.06721889205722
  N   7.17974464543664     -0.63469970035087      0.57306155330445
  C   8.49843313818625     -0.11751628943206      0.61357424904764
  N   9.22584152007446     -0.15747161938691      1.64261017396902
  N   8.98870470140360      0.34617968912367     -0.62119773432551
  C   9.20070211052522      1.57978802743106     -0.79205760728386
  C   8.97114744217045      2.63947958775575      0.22272913838395
  C   8.02857835956453      3.55507063302617      0.08631158299675
  O   7.26799853273230      3.65227782446423     -1.06771772520194
  C   5.90713259453663      3.53374044661622     -1.03618609655545
  O   5.20320924593888      4.38060873551436     -1.47794560903620
  H   4.62266062668945     -1.35349547312187      0.44871230477405
  H   8.73140567393835     -0.62475368075448      2.40080952087209
  H   9.56084199344343      1.89318524072653     -1.77119826157476
  H   9.55763682029614      2.62106635372145      1.13172630562802
  H   7.81347319450073      4.31613571727765      0.82682476090378
