22
Coordinates from ORCA-job 17232optt
  Br  4.46173022191668     -2.59606400655948      0.63838581735808
  C   5.49616921408282     -1.37434468888249      1.62170398617661
  C   6.30600465240710     -1.77139658273795      2.67664441667793
  O   6.80371493640653     -0.81023383266772      3.47878494082709
  C   6.25030264428703      0.48836773240093      3.28743273057032
  C   6.47966789762106      0.62222063557100      1.80636610636637
  N   5.77844403116245     -0.16994181029764      1.06833451885063
  N   7.79174688992937      1.02399689297218      1.50118576023080
  C   8.40407719340975     -0.02176764256516      1.07784559532842
  N   9.75888520407932     -0.21719083030930      1.17730419752463
  C   10.18105433966172     -1.08902595197593      2.00434508410619
  C   11.57933667628342     -1.38276161148993      2.09345059018060
  C   12.73059931094599     -1.69261701857458      2.20112020672093
  C   9.32332774876202     -1.84168214946613      3.06422388421157
  O   9.57163560683413     -1.64612938800785      4.22006214103967
  N   8.48679626238993     -2.82790025164500      2.57553590619549
  C   7.22050584228559     -2.89395005061669      2.47477403450900
  H   5.18603089164428      0.48140908836070      3.53090028026896
  H   6.82271811073610      1.17398881672460      3.90137187388282
  H   7.86822888175993     -0.87054928757832      0.64301844573920
  H   13.75804125835181     -1.95780146627321      2.28780756631445
  H   6.79198218504271     -3.80962659638200      2.07540191692014
