23
Coordinates from ORCA-job 17230optt
  Br  7.47791529472073     -5.54385980538258     -1.12625711058711
  C   7.70171376015673     -3.93603005432137     -2.07008341133568
  C   8.09406110821162     -3.88977942042512     -3.33935060364246
  O   8.26584176044653     -2.64275903826784     -3.92763283814010
  C   8.91175808000353     -1.74323013327209     -3.08294782840404
  C   8.70159475577423     -1.84812169711698     -1.78123614819246
  N   7.70767454640908     -2.75395733217711     -1.33622640254357
  N   9.53458914902136     -1.30853483775304     -0.77380704271221
  C   10.70093008437351     -1.80374509769426     -0.65283139609730
  C   11.32333557046916     -2.85357313610588     -1.51603274532871
  N   10.59884998211847     -3.73867041717280     -2.05649651684216
  C   11.07905832696861     -4.60871873507066     -3.04699456969887
  C   10.24125824760113     -5.14336965796396     -3.95908974163224
  C   8.74652144255056     -5.04513429905730     -4.02578696144818
  O   8.14050699150603     -5.92484304174885     -4.58401248808247
  C   12.48474253176337     -4.89655357816357     -3.09515274942227
  C   13.66543787526545     -5.10383598491799     -3.10043308313248
  H   9.68893931893992     -1.15189245401946     -3.54130361014744
  H   7.60423381972116     -2.84074702421324     -0.33682505221967
  H   11.34199486050087     -1.37100737399311      0.11393707868997
  H   12.39734123589448     -2.75529915473758     -1.70752590180891
  H   10.65812709348871     -5.81821681118108     -4.69637158439472
  H   14.71057416409450     -5.30512091524404     -3.12053929287685
