23
Coordinates from ORCA-job 17249optt
  Br  1.01660683273440      0.24982038513049      0.37327984200987
  C   2.86885738363450      0.07505484051912      0.22408012526135
  C   3.64486138885198      1.17645887705214      0.12719187890869
  O   3.26333488291773      2.46888528685776      0.11249028632950
  C   4.40374760573097      3.23003391803044     -0.00210236044324
  C   5.47909038321997      2.44725564594923     -0.06012556546423
  N   5.01121085173616      1.13321492256309      0.02274757160641
  C   5.66991042285685     -0.06588105189518      0.00564813715792
  C   4.94797152335749     -1.19604906341556      0.08171947141172
  O   5.55388611733460     -2.43873434171924      0.11073319808798
  C   6.52335240564120     -2.74398508286605     -0.78035519035502
  O   6.99307166981147     -1.99883636989447     -1.58778788831103
  N   6.92335506764333     -4.05181123467707     -0.62374789463853
  C   6.43916427930304     -4.99072511834038      0.27705481210635
  O   6.87897888188056     -6.10265732900886      0.32405996383177
  C   3.47914333307550     -1.24513282811820      0.19310172788104
  N   2.78161386235883     -2.31505237937605      0.25412309986555
  H   4.27459672281358      4.29556323414148     -0.02903995715968
  H   6.52405593343086      2.68097698262434     -0.15204783147188
  H   6.74340630006341     -0.03941380900972     -0.08987360420078
  H   7.66018857061792     -4.35520197411173     -1.24648020071004
  H   5.63850501550227     -4.61393895323257      0.92288847760667
  H   3.37709056548330     -3.13784455720297      0.21344190068960
