22
Coordinates from ORCA-job 17248optt
  Br  1.18251098337844      0.05711282425859      0.03074593435307
  C   3.04606802359407     -0.02500872920898     -0.02734783097333
  C   3.78095933188459      1.11490669990338     -0.04139071133034
  O   3.32066937392849      2.37542176131577     -0.02685762991027
  C   4.41016618821318      3.21026067720007     -0.04802600776680
  C   5.53832825320251      2.50485291957054     -0.07474434531013
  N   5.15101032669215      1.15378934490809     -0.07098583548702
  C   5.85677558652616     -0.02933077023384     -0.08558242301540
  C   5.18940575645973     -1.20452956495464     -0.08209250147438
  C   3.72427242326805     -1.31065513295804     -0.05638925527205
  O   3.15740841268134     -2.38859294112484     -0.05648062900009
  C   7.31192913184278      0.02019792072809     -0.09297445739063
  N   8.07358714630569      1.04773414642732     -0.08596007659826
  N   9.33529945633645      0.52119788217664     -0.11487894853849
  C   9.32435361918168     -0.85597314227002     -0.07507049976940
  N   10.19974852917169     -1.75068393221760     -0.03744261790240
  O   7.97833960880143     -1.15806307795150     -0.10042516889498
  H   4.21162267044054      4.26559904703812     -0.04101998377643
  H   6.56811782565096      2.80310245278255     -0.09537930503060
  H   5.74540469256400     -2.13090122191516     -0.09369093421450
  H   10.12992224093127      1.11647853445614      0.03090499212913
  H   11.14110041894472     -1.37491569793069     -0.03091176482668
