25
Coordinates from ORCA-job 17252optt
  Br  0.91097628291588     -0.31816419096884      0.22480786225618
  C   2.76016194423648     -0.17303126613876      0.01574982117220
  C   3.53036510599686     -1.26732829624891     -0.02228397808390
  O   3.16872063421420     -2.55304674982286      0.12039102569715
  C   4.28982054256014     -3.37476239572912     -0.21588555502688
  C   5.52544176162201     -2.48194202815450      0.00084380592746
  N   4.89453389930203     -1.17785579469284     -0.20384767540161
  C   5.47122765089859      0.05997028252195     -0.25667159691619
  N   4.81829618936155      1.15195370074137     -0.22744963824565
  C   3.40326862048894      1.14369810656930     -0.10822900959667
  N   2.72172949319299      2.21317500259802     -0.10442318085157
  C   6.65377958178250     -2.74007592875462     -0.92272950665180
  C   7.90716807828342     -3.14651752114862     -0.65287230458957
  N   8.56698402296741     -3.29066709308439     -1.85924244562418
  C   7.74383218511658     -2.95928743407940     -2.92344304171165
  O   8.00806161817947     -2.95331745641717     -4.10122781167997
  N   6.54613293992389     -2.63618086461381     -2.30677220566401
  H   4.21048037239625     -3.67940625337639     -1.26180627166537
  H   4.28071473355056     -4.25077614377922      0.42571817788803
  H   5.89023060998809     -2.57269347382070      1.02799221817010
  H   6.55461797092869      0.06065075317664     -0.34575849647256
  H   3.35104467450129      3.00823740440068     -0.19935450839340
  H   8.36927779356145     -3.35340804284480      0.29614106376572
  H   9.52232758136998     -3.56973658092536     -1.99684116497834
  H   5.76680571266069     -2.26548773540763     -2.82480558332352
