20
Coordinates from ORCA-job 17254optt
  Br  1.11602845848249      0.44229963037653     -0.91447928743505
  C   2.90784900927639      0.29064947899268     -0.42656238808258
  C   3.67745046627222      1.37470537340949     -0.26680097729999
  O   3.37108393684231      2.68905653634696     -0.39590141319269
  C   4.53302077079571      3.38201290931108     -0.14546451502217
  C   5.54469440825120      2.55920639746475      0.13581353712900
  N   5.01789167914062      1.27930455835253      0.07660543629488
  C   5.56429742433523      0.03132041423478      0.27123453399760
  N   4.89694742609795     -1.03972375138983      0.15027896471771
  C   3.51986856593986     -1.02665882071315     -0.20280502503777
  N   2.84784280329530     -2.09476665530429     -0.31866690217013
  S   4.56547714454970      5.12746403261344     -0.14626835808252
  O   3.55170402368730      5.62755555663237      0.71582347371228
  O   5.94003328399644      5.46581700151670      0.02869284693601
  C   4.09168024710273      5.47594010299299     -1.75641711787298
  C   3.71862124128267      5.71654741126141     -2.86751422205991
  H   6.57071673174665      2.78144047774935      0.37168167398914
  H   6.61590329019968      0.01953415906315      0.53999255322908
  H   3.44831725178917     -2.89363953348487     -0.12402027846276
  H   3.38857183691615      5.93593472057381     -3.85722253528710
