23
Coordinates from ORCA-job 17253optt
  Br  1.23218191040364     -0.07668514282262      0.31164237025715
  C   3.09247175091385     -0.10338325477214      0.15319207350115
  C   3.75518591851484     -1.27219413021236      0.11421974542024
  O   3.26341916007208     -2.51286841551766      0.20509228518751
  C   4.30842910705018     -3.43843224335832     -0.13624167480353
  C   5.60847893162095     -2.67408579475422      0.12851881118417
  N   5.12300784825067     -1.30828821477913     -0.01491964404697
  C   5.80934151870916     -0.13402952621973     -0.05424124527312
  N   5.25743377487369      1.01615173877816     -0.03019536003729
  C   3.86623851451184      1.13315215369344      0.06268901770157
  N   3.24475228512777      2.25440727583865      0.08057868906181
  C   3.80218243015703      3.48030843514295     -0.02242484336313
  C   3.20575130913119      4.66580724887917      0.12259854839431
  O   4.12857854947482      5.66532042441846     -0.08879279624628
  C   5.30939682780318      5.07040045249994     -0.38669423243364
  O   6.32056122752823      5.63584718361216     -0.64095101319884
  O   5.13701159745593      3.73089025339902     -0.34497215203051
  H   4.20549469821121     -3.70131094171743     -1.18962611659539
  H   4.18912176204041     -4.32215661618836      0.48275563605049
  H   6.38465188383203     -2.89817670191337     -0.60019135396640
  H   5.98885825941384     -2.84380993786278      1.13742065874313
  H   6.89005576845670     -0.22235132987794     -0.11580145360406
  H   2.19539496644671      4.93848708373408      0.35834405009763
