24
Coordinates from ORCA-job 17261optt
  Br  1.09538863696232      0.31385865357304     -0.40882201123780
  C   2.94743879809275      0.07645824667313     -0.20562600648564
  C   3.73417686352560      1.18724556947821     -0.19226848238960
  O   3.30995328904502      2.45438855973231     -0.30510461193017
  C   4.40929289477879      3.32137731938725      0.03100770209445
  C   5.66151080952466      2.47304185078851     -0.19150569336047
  N   5.08872410613344      1.13710558331438     -0.09004793824793
  C   5.85867527609113     -0.02199787887163     -0.05024133134662
  O   7.07666087151108      0.01461682444770     -0.01740654280779
  C   5.02420740841023     -1.18123759344678     -0.05157628292463
  C   3.65639198222893     -1.15729255509655     -0.11653573188792
  N   3.23957055315740     -2.49997272552960     -0.10704220216567
  C   1.94652669845528     -2.99164463333103     -0.00687889779504
  O   1.68063614203051     -4.16263762675580     -0.02014885919920
  C   4.39985164326330     -3.36352757463179     -0.06737993376273
  N   4.48992994214435     -4.61716904605513     -0.06924548043039
  N   5.45864362224610     -2.48553100769400     -0.00734051105251
  H   4.30229356760913      3.61537875745981      1.07582637267023
  H   4.35300396849940      4.19699793131718     -0.60821371467479
  H   6.42754761720909      2.61642033833154      0.56667162116243
  H   6.10848995792377      2.60905664262240     -1.17698761074409
  H   1.19195925206737     -2.20905237984644      0.09643657838250
  H   3.58232412686826     -5.06384625888631     -0.11612727157329
  H   6.41980197222181     -2.78103699698036      0.00155683970667
