20
Coordinates from ORCA-job 17266optt
  Br  1.19846993693033      0.13301161561840      0.19348254230530
  C   3.05817233807267      0.09393979013932      0.08317255692980
  C   3.78297205017571      1.22037401539617      0.06655535018848
  O   3.36163324307031      2.49306865516332      0.11416523771518
  C   4.48332918378877      3.30000871918147      0.00688655779347
  C   5.58223163561836      2.56264864004703     -0.09774644391288
  N   5.15472506136502      1.22684339538978     -0.04614272342479
  C   5.94660328328830      0.09639551472356     -0.13963036032008
  O   7.12152854471363      0.16131435245356     -0.33285771817685
  N   5.20057868646337     -1.10423349341324      0.00426940183316
  C   5.94097371908307     -2.30689243108567      0.24095198648792
  O   7.07114383485280     -2.32211627744498      0.59539354357261
  C   5.15926687193777     -3.59751661439647     -0.00224669344108
  O   5.70457743473605     -4.66872470639967     -0.01964330572462
  N   3.82825622214881     -3.41588308925354     -0.18659704635522
  N   3.12789424453544     -2.25666164370822     -0.08767369329752
  C   3.77574051164994     -1.16014425558767     -0.01176017902918
  H   4.31130263652378      4.35975869495643      0.02654276415078
  H   6.62223711578297      2.81437118169755     -0.19527150177317
  H   3.25936344526283     -4.24256206347713     -0.29785027552130
