21
Coordinates from ORCA-job 17264optt
  Br  1.08676603917006     -0.04339024424109     -0.20089893303950
  C   2.94094700587789     -0.02994499180871     -0.00750413164224
  C   3.64293760468608      1.11648104726897     -0.06077624917041
  O   3.22272125867662      2.38076648516389     -0.24275741464286
  C   4.33708040532804      3.19307017751281     -0.21170828938977
  C   5.44029305023100      2.47734059807286     -0.01518117542443
  N   5.01238855089126      1.14431709513726      0.07931432783942
  C   5.65835070560506     -0.03561769401062      0.28549009961021
  O   6.98679641923486      0.12385816193297      0.39490372886536
  C   7.68864618757867     -1.03488970083863      0.77795009794102
  C   7.42439685917503     -1.35266441737886      2.23574962488979
  O   6.76126709225981     -0.68177133500326      2.96298429929521
  C   8.10725241666351     -2.58280821390763      2.69678977674867
  N   8.68242007330765     -3.52897195541152      2.99021161374481
  N   5.07788758666162     -1.16184819553502      0.35185616562784
  C   3.67446905834506     -1.28422898757587      0.20793461281443
  O   3.14488283011597     -2.36389621518439      0.26016829220601
  H   4.16768155137806      4.24544074672339     -0.34274320472956
  H   6.47389010989210      2.75572067001754      0.06851490596167
  H   8.75009222799420     -0.82285307247859      0.64567043990577
  H   7.41083296692733     -1.89910995845551      0.17103141258852
