25
Coordinates from ORCA-job 17276optt
  Br  1.14672725797089     -0.33478137022470     -0.94506790864658
  C   2.91299016556133     -0.12459708444915     -0.37888008967971
  C   3.72800821664481     -1.17274363362495     -0.16958920160085
  O   3.43436041993365     -2.46998360088388     -0.34103902543348
  C   4.50532610093549     -3.26466619891734      0.20471579063961
  C   5.74663567145893     -2.35089280008738      0.29238621017251
  N   6.67447052424519     -2.54875014332241     -0.79750747922622
  C   6.44942677464583     -2.32425798471761     -2.15294050312794
  C   7.56684875729684     -2.67494530092283     -2.80822759636749
  N   8.47943092925309     -3.11938410290565     -1.86001014105859
  C   7.94680390148522     -3.05257578424432     -0.59237808304254
  O   8.45580623331154     -3.35844315652002      0.46839829494431
  C   5.09005858456663     -0.99716458884053      0.25698098252939
  C   5.53745260294213      0.23948611415544      0.46419567879890
  O   4.74705035531139      1.31226370146449      0.28954998007321
  C   3.42170056506016      1.22359020871107     -0.14615685260281
  N   2.74701489304355      2.27247750426744     -0.30680709185648
  H   4.66166143263901     -4.11428042501903     -0.45515606278224
  H   4.20066116607910     -3.60803560573897      1.19334630545850
  H   6.31895090136884     -2.54575778011410      1.19845691133293
  H   5.51926055704337     -1.92808097747128     -2.52231724818290
  H   7.79440296360685     -2.64340731131928     -3.85779452361883
  H   9.41529096295620     -3.44344156243593     -2.02723007776368
  H   6.53876824914272      0.50817937275550      0.77023321892318
  H   3.29289181349681      3.10119251040554     -0.08516148788217
