27
Coordinates from ORCA-job 17274optt
  Br  1.15204323445334     -0.16303670494614     -0.20979912422775
  C   3.02875687921457     -0.11269778063966     -0.07022191840741
  C   3.72492566650345     -1.27296052079998      0.23689972455123
  O   3.06915447910632     -2.41602981682919      0.56900054662994
  C   3.08816365740923     -3.46351256790704     -0.39288775271936
  C   4.47236443213206     -3.63894796503059     -0.99894274938801
  N   5.51139004515139     -3.62476031216621      0.01498567577974
  C   6.19961036850010     -4.76636491703051      0.33037947892713
  C   7.24915237523749     -4.78284368136585      1.17022490773030
  C   7.74476341106312     -3.55869189191886      1.78996708858726
  N   8.74763651714941     -3.45041815790573      2.58347111773456
  C   6.97308849857420     -2.37769477769248      1.42699935695516
  C   5.91476190124447     -2.43096690901208      0.59543735639357
  C   5.12529625205805     -1.21077055752861      0.28467943724156
  N   5.79404155786175     -0.07764350608540      0.10070147945605
  C   5.10699409715054      1.02951811197074     -0.15243547462084
  C   3.72552756543283      1.06764747604289     -0.26444474976832
  H   2.35569817245771     -3.26393315366940     -1.18193372997343
  H   2.78867757358060     -4.35382450897421      0.15781176616178
  H   4.67210660712916     -2.85060637827895     -1.72746066944890
  H   4.51460729494172     -4.58728887171029     -1.53256056050345
  H   5.83930010081420     -5.66574685258910     -0.15202656235411
  H   7.74225917982636     -5.72299911633217      1.37767983905053
  H   9.17880107600730     -4.35995225846195      2.74175745322478
  H   7.26008886498287     -1.42564564573310      1.84954198269962
  H   5.68674620550422      1.93576517322543     -0.28261088314307
  H   3.20704398651351      1.98740609136845     -0.49421303656856
