25
Coordinates from ORCA-job 17270optt
  Br  1.01540401307929     -0.04392635763705      0.21356370894967
  C   2.85236770786897      0.10586294376218     -0.04259293744709
  C   3.52713026070871      1.26438017142140     -0.01203729653479
  O   3.01662913684978      2.48923967973971      0.13787268464062
  C   4.06014445129501      3.45399782537232     -0.16059004571103
  C   5.34698904725987      2.69849958012392      0.17488284340198
  N   4.90879521645308      1.32609053999710     -0.06832713692939
  N   5.72367895506316      0.32368955132965      0.32102706185873
  N   5.32896524581762     -0.84578120445977      0.29795981682520
  S   3.82850269422189     -1.27999976114252     -0.41551279958063
  O   4.10006108099986     -1.32849283216964     -1.81713515162175
  O   3.35880093702052     -2.42915078712892      0.27528751299520
  C   3.97543221262807      3.85465783444379     -1.60118920313737
  C   3.09846159437134      4.98344189313242     -2.01918571002881
  C   4.59580751256844      5.16819100132751     -2.01048979240663
  C   5.32135836679370      5.21859146756470     -3.25091685010952
  C   5.91991258112810      5.22754517656019     -4.28845807349747
  H   3.89279386743279      4.30545227436693      0.49703758704899
  H   5.64475759496208      2.81336988362019      1.21746544863570
  H   6.16931144154179      2.96554247947206     -0.48441058100886
  H   4.10341925773420      3.04050835584318     -2.30586348663170
  H   2.53924452560231      5.50078150014197     -1.25148177892689
  H   2.61595958789988      4.91739389091959     -2.98249676544716
  H   4.99738274266847      5.78421528198067     -1.21439899991848
  H   6.45168996803102      5.23389961141835     -5.21001005541850
