21
Coordinates from ORCA-job 17289optt
  Br  1.32841984137074      0.21772630715783     -0.27255283924825
  C   3.19293105294866      0.01961608216791     -0.18072647573873
  C   3.75430328798530     -1.20088013832655     -0.11270358614975
  O   3.00746676045706     -2.34699469837205     -0.09283726194413
  C   3.66431848091165     -3.51916848958711     -0.03060973886321
  C   5.00063868289202     -3.60471145338826      0.01541158879773
  N   5.79858189710506     -2.47107362646660      0.00075759445129
  C   5.19670121444187     -1.33924104022840     -0.06019750317718
  C   6.00194747798662     -0.08912479982227     -0.08313745173542
  N   7.26571303587466     -0.02475823630253     -0.06886642561523
  C   5.19670697642694      1.16114157802926     -0.13242865777173
  N   5.96024898277295      2.31327265083650     -0.12650748566763
  C   5.58591600032040      3.62827543283133     -0.06357329916827
  O   6.38568942684498      4.52375975158394     -0.10410840597926
  C   4.15205257377003      3.93772879897807      0.08459121051170
  N   3.08303227971452      4.32307977529486      0.22085742908936
  N   3.92471990073631      1.18402323981348     -0.18865244159120
  H   2.99410474848273     -4.36548148727976     -0.02138835166650
  H   5.49531766656708     -4.56169556513161      0.06635178814008
  H   7.67221440288771     -0.96284999873094     -0.03933138255657
  H   6.96397530950260      2.15835591694294     -0.15334830411711
