20
Coordinates from ORCA-job 17283optt
  Br  0.99310313185182      0.20902947182387      0.34199880403344
  C   2.84864569848547      0.07207399278628      0.10982296879303
  C   3.61982022628746      1.16191062037945      0.04703903651605
  O   3.02853256137676      2.39311075490395      0.17781855479690
  C   3.75892172662117      3.49080130456039     -0.09736505637583
  C   5.05997860958481      3.42539480005435     -0.39403525982424
  N   5.73774507607707      2.21900585383603     -0.37404960794486
  C   5.06886257147619      1.14979218433458     -0.14813310546588
  C   5.82297219886988     -0.13301179036661     -0.07620965449368
  N   7.08655470972512     -0.08286923081059      0.05866680497235
  C   7.81450767976184     -1.28684513187924      0.09752447334567
  N   9.00720448726559     -1.32397752832530      0.50679776881396
  C   7.13476834352970     -2.56163175822922     -0.35632255731787
  O   7.74137142647269     -3.51355202741912     -0.74421270879251
  N   5.72737431177639     -2.56625605288737     -0.28451768882446
  C   5.12114673976102     -1.45336780040882     -0.14840092152929
  S   3.38671623651421     -1.58354153708136     -0.02075966638485
  H   3.17375159786307      4.39614778602058     -0.03675517099536
  H   5.62957372117469      4.31187648688349     -0.62422384422746
  H   9.30544894552499     -0.37709039817535      0.75531683090489
