25
Coordinates from ORCA-job 17292optt
  Br  1.01000208262156      0.04987732081888     -0.16267087392055
  C   2.86213813452453     -0.06189022077550     -0.02273986395398
  C   3.51175238024436     -1.23722937082971     -0.05269194639836
  O   2.86024799416643     -2.40305538921063     -0.14978664413143
  C   3.61591735099943     -3.59670537372009     -0.42930093893511
  C   4.90817710875764     -3.59487877659886      0.35312193492715
  N   5.63635983799982     -2.40295473355603     -0.02894276744434
  C   4.96556149362658     -1.20338290823148      0.06487745938288
  N   5.64456858443331     -0.12862155707013      0.21493896414928
  O   4.96902470665242      1.06577203687173      0.22232067029755
  C   3.61152285277452      1.18844164065018      0.11870588894031
  O   3.13673714274906      2.28270433216452      0.14689047489362
  O   2.85779597425647     -4.66852424792821     -0.04094868370610
  C   1.69710718949087     -4.89285094487365     -0.82495244217413
  C   1.15094159954387     -6.24894946641164     -0.40032168664270
  C   -0.03244179589211     -6.60338733227401     -1.17906016214991
  N   -0.95431030733167     -6.86444631169897     -1.80663095588626
  H   3.80903838115390     -3.60649417129935     -1.50945328481385
  H   5.48510141970305     -4.47518963183715      0.07761698539156
  H   4.66889013458969     -3.64548447740976      1.42112665622404
  H   6.61033358453138     -2.34424772891068      0.23081715351954
  H   1.95986131043225     -4.90243750044925     -1.88761605769461
  H   0.96152798623312     -4.10516125261735     -0.65288286886593
  H   0.89119052324980     -6.23001964882033      0.65865455101733
  H   1.91295433048966     -7.01588428598247     -0.54507156202598
