28
Coordinates from ORCA-job 17298optt
  Br  2.75294694754409      0.54428928735815     -1.56107975150206
  C   2.89592713137323     -0.73572502532850     -0.17833153982876
  C   1.98878107428600     -1.79396706007928     -0.14547790573394
  O   1.08222541934214     -1.94602729989218     -1.14307031499205
  C   -0.17251981614926     -1.27801178555882     -1.01539008475132
  C   -1.26527271806359     -2.27541716787327     -0.68455665861012
  N   -1.14793335188018     -2.90698072846780      0.62482821691175
  C   -0.18231274986314     -3.90546018635236      0.80393340059169
  C   1.16065744708999     -3.86923821247578      0.93238305005843
  N   1.57222487216029     -5.16627010974916      1.27639316794327
  C   0.49536647072240     -6.04608934145973      1.25713572591022
  N   0.42591706336750     -7.31094565012461      1.41162770295402
  N   -0.58176135557523     -5.22244886475535      1.01727316910872
  C   2.09469301818620     -2.75377631588439      0.87141830383726
  C   3.12883768371791     -2.63994781797234      1.80382560339077
  C   4.02284731989470     -1.58475130924688      1.75130678671794
  C   3.90523350937586     -0.61842504175885      0.76198516356969
  H   -0.37459044060166     -0.79384128933622     -1.97272688670901
  H   -0.10182573310635     -0.50204479955899     -0.24647986396077
  H   -1.26852720224251     -3.06366619139222     -1.43850557806798
  H   -2.23066564702185     -1.76573176128892     -0.73249728422996
  H   -1.13813945526867     -2.22897212335787      1.37604368250845
  H   2.51642649325767     -5.49038609593680      1.15329468387584
  H   1.33710493197184     -7.71675961132346      1.59356285643144
  H   -1.52971047553600     -5.55360048221989      0.98234113191889
  H   3.20933930836789     -3.38260529922174      2.58773585504174
  H   4.81018919877599     -1.50222280821721      2.48829291659057
  H   4.59054105587472      0.21602309147451      0.71173445102529
