20
Coordinates from ORCA-job 17297optt
  Br  1.26611503042641     -0.19080274842685     -0.07095928934976
  C   3.10661051378525      0.05599259272885     -0.06786747738230
  C   3.70146146846442      1.25212029439075     -0.06680064570321
  O   2.94159812407478      2.40291637958758     -0.06748740823160
  C   3.58513559197994      3.60585147498234     -0.06783811061731
  C   2.70408754513598      4.73169338032352     -0.06901534506084
  N   2.05946128972636      5.68092480246318     -0.06951868676092
  C   4.91280040571534      3.71326536872653     -0.06690441168545
  C   5.87064766584107      4.84013508905069     -0.06701074008249
  N   5.75176218626085      6.09900070935191     -0.06796133551697
  C   7.18211799178370      4.12258639096852     -0.06556469529019
  N   7.09448046091997      2.84082057116149     -0.06461879237446
  C   5.73655380559072      2.51060913411622     -0.06540788627169
  C   5.14094439778377      1.30621038757603     -0.06522657835757
  C   5.77955824081920      0.00451896226599     -0.06394683083697
  N   5.17434700711934     -1.11705368755496     -0.06460509790089
  O   3.79154680673144     -1.11938730248346     -0.06688028948660
  H   4.77678866020122      6.40256373185559     -0.06885593930415
  H   8.13146556136415      4.64324937679633     -0.06532640979262
  H   6.86051724627603     -0.06321490788029     -0.06220402999399
