16
Coordinates from ORCA-job 172optt
  N   -3.15664591877778     -0.39889536045075     -0.00000001610295
  C   -2.47062852942614      0.71228141994278      0.00000032343336
  C   -1.05609499326378      0.77171623383518     -0.00000004750863
  C   -0.34665090431496     -0.39262252112818     -0.00000078314194
  C   -1.05002069865636     -1.61840004779504     -0.00000040021608
  C   -2.46325067134350     -1.56697242672373     -0.00000051081706
  N   -0.35660648736653     -2.78645221146850      0.00000038379496
  C   -1.04261999575719     -3.89764547734009      0.00000057926792
  C   -2.45713644644814     -3.95708472241087     -0.00000014868207
  C   -3.16659971492194     -2.79274071885171     -0.00000030270505
  H   -3.04447170220125      1.63384259418051      0.00000094913558
  H   -0.56129438924280      1.73360895629990      0.00000044893321
  H   -2.95196502285715     -4.91896299566616     -0.00000033696373
  H   -0.46876102985328     -4.81919767905591      0.00000112193934
  H   -4.24880634234374     -2.76554541868397     -0.00000035340777
  H   0.73555284677455     -0.41992962468345     -0.00000090695911
