20
Coordinates from ORCA-job 17306optt
  Br  0.81163217372485     -0.59999881988288      0.36928678108453
  C   2.62688271323148     -0.19136824212433      0.16799801941922
  C   3.55954761058572     -1.14224955720727      0.06516801201616
  O   3.31801498225935     -2.49351374680585      0.08722472342584
  C   4.53009056306294     -3.10125230743330     -0.01176096802750
  C   5.56128515459597     -2.23027471650482     -0.10180690327874
  N   6.92105100403082     -2.43477162142662     -0.25588586613138
  C   7.50124052773480     -3.46199380564914      0.19755782141950
  S   6.85325775608908     -4.79166840383828      1.16153054107918
  N   8.35067467968339     -5.57404697901956      1.44869787778122
  N   9.35776700185385     -5.11000462307124      0.92013326743233
  S   9.21930008397601     -3.73190579322997     -0.05315555784587
  C   4.97091857748235     -0.89841895899187     -0.07390903263430
  C   5.54743425459877      0.31723755142297     -0.15138937560452
  C   4.79673756645875      1.55903658385798     -0.11314501081850
  N   5.23544244549854      2.74678011437439     -0.21199371095186
  S   3.01933350753785      1.49279619662660      0.11602328297396
  H   4.49349944384881     -4.17741261490039     -0.06019507988414
  H   6.62303057331485      0.39844209522833     -0.25778843172412
  H   6.24685938043176      2.75658764857525     -0.32859038973101
