26
Coordinates from ORCA-job 17302optt
  Br  2.68764730943743      0.26925322903562     -1.48516609113577
  C   1.26602875490761      0.21163755057097     -0.24464867677899
  C   0.72396498936739     -1.01467730120869      0.11501054235271
  O   1.17696378798370     -2.20324913744080     -0.37254694587215
  C   0.63721297287156     -2.63018779902345     -1.62895904073060
  C   -0.85170520003664     -2.37645062727521     -1.79659402517455
  N   -1.77544674172534     -3.08669418417217     -0.93286826464811
  C   -1.76677050231693     -3.03428295301227      0.31966483843259
  N   -2.76233750492484     -3.60934821059107      1.09620727535389
  C   -2.72914211908710     -3.18367131093346      2.40619249994714
  O   -3.51768895585424     -3.39980569830417      3.27026693250197
  O   -1.60976421124705     -2.43247892081644      2.56764708152997
  C   -0.83288792812367     -2.42790868090820      1.37379640082407
  C   -0.31168744652239     -1.06063203287429      1.04530440213684
  C   -0.80300057383177      0.10388003879118      1.61071849903119
  C   -0.25963911318360      1.32612118360153      1.23571285348261
  C   0.77110681856261      1.38400577803545      0.30987690310057
  H   0.85754750332406     -3.69551595662288     -1.67922279048891
  H   1.16432132296792     -2.11842282632184     -2.43914854720273
  H   -1.08921398508468     -2.66508859689946     -2.82172908430044
  H   -1.04737603136010     -1.30120626012143     -1.72956179279553
  H   -3.57860713744345     -4.05096490427834      0.70402356638587
  H   0.00761128151435     -3.11339829851404      1.50677399619199
  H   -1.59542031272576      0.04714315812024      2.34458309539133
  H   -0.63725062776679      2.24223377591859      1.66934457886673
  H   1.19953365029772      2.33270898524466      0.01732179359831
