21
Coordinates from ORCA-job 17305optt
  Br  1.64502017906971      0.59311996940328     -1.76997783484334
  C   3.24582978459358      0.13256719257983     -0.89130672345326
  C   3.51193982355003     -1.21227823764838     -0.62225914319004
  O   2.64421080991302     -2.16406487710082     -1.06496256885108
  C   2.14792211541729     -3.11434444160444     -0.14888677992965
  C   1.43006963468983     -2.45438147144680      0.95481237600259
  N   0.87803795446021     -1.91487601107219      1.80019261589938
  C   3.25979736731189     -4.09476001877736      0.37558552486670
  O   4.45174619723766     -3.86812014494720     -0.31083148869436
  C   5.12626098697462     -2.86949189391805      0.42503792292355
  C   4.66535694120929     -3.14097396473102      1.86188455374075
  O   5.12881580239241     -2.79069880425171      2.88877613308711
  O   3.53673428622154     -3.89602223569220      1.74480233933558
  C   4.71307649567865     -1.47009526044829      0.02871941269404
  N   5.54979164901792     -0.49648022349200      0.37206862540658
  C   5.19079811608102      0.73792262458858      0.06641720597389
  N   4.06931440173491      1.09427089616232     -0.55567860084395
  H   1.42856892869289     -3.69410316927554     -0.72624308094008
  H   2.94980372014947     -5.12689120751639      0.23225085963001
  H   6.20240400617372     -2.98355950615842      0.32763762949283
  H   5.86850079943027      1.53626078534684      0.34196102169273
