22
Coordinates from ORCA-job 17304optt
  Br  1.05000632257381     -0.40283509127693     -0.39650026112224
  C   2.93619187277908     -0.25714509973170     -0.31106017522683
  C   3.66215548628250     -1.32364213769070      0.21358836120646
  O   3.03149331845742     -2.41550985862181      0.75429831542575
  C   2.85605888930821     -3.49043953028270     -0.15463407075259
  C   1.90669314064566     -4.43728468599028      0.44624834853254
  N   1.16291699338011     -5.18335072060853      0.89189547071459
  C   4.18816752070220     -4.13671054996639     -0.43787524823380
  N   4.33249451623436     -5.22427817842940     -1.11897698787191
  O   5.65604723105521     -5.45401988149687     -1.17271192021001
  N   6.35109879478785     -4.49694363595563     -0.52528708881159
  C   5.47943654128242     -3.66431453550958     -0.05232498962833
  C   5.83976288619158     -2.43370916009108      0.71853174636329
  C   5.04997090167865     -1.25022482658751      0.21997874793791
  C   5.63666244998585     -0.09031616148243     -0.26683894316486
  C   4.82000443557488      0.92602256541928     -0.73682012349113
  N   3.49186409890074      0.83885916447088     -0.76681708784784
  H   2.41419996837285     -3.12188893457728     -1.08751592013137
  H   6.90885582624574     -2.25611862024952      0.62182289474418
  H   5.61544687930184     -2.59852333063964      1.77559633834946
  H   6.71309985671288      0.01769427765856     -0.28525214316604
  H   5.24337206954612      1.84767893163927     -1.11734526361563
