24
Coordinates from ORCA-job 17309optt
  Br  6.66907087782682      1.85764375579195     -0.47429166173990
  C   6.11648650479906      0.71741840143502      0.91253402158904
  C   6.48918772220547      0.90099659188127      2.20562359576431
  O   5.98289177308039      0.02471303189753      3.11638419906492
  C   6.19771653781871     -1.35324651490097      2.79984191834109
  C   6.56816297465610     -1.51244826181830      1.34012105940185
  N   7.62861138956531     -1.95266497938891      0.75922859797935
  C   8.86895951065495     -1.80961989554837      1.39382751425797
  C   9.22339308066903     -1.87234085051328      2.69946930514125
  C   9.52805544198338     -0.50400436227733      3.13373252457067
  N   8.52899736924081      0.03644757704637      3.74909779472451
  C   8.48737571019335      1.30671067970069      3.17073113337582
  O   9.75822261621170      1.77170165583930      2.95160585200719
  C   10.48071061284882      0.57396498304682      2.63869929292915
  N   7.48400447044640      1.80015374189843      2.56251896804338
  C   5.64802786111199     -0.64595099482837      0.50905133889240
  N   4.86223818032764     -1.03021475172321     -0.39051517637517
  H   5.24904287202939     -1.87911918167054      2.93917462563005
  H   6.92623248853877     -1.74241381303050      3.49819792985886
  H   9.51527826363800     -1.24320072402925      0.72519739143390
  H   8.65535130175514     -2.45984780782647      3.40499238537244
  H   10.67092401018697      0.54092767487326      1.56481071703351
  H   11.42364028581917      0.54157220126597      3.18360894858401
  H   4.43541814439250     -0.23017815712111     -0.86264227588061
