26
Coordinates from ORCA-job 17314optt
  Br  2.00702171101131     -1.98708108323931      0.56994844092134
  C   2.82782009438384     -0.30736569545857      0.35363013695091
  C   2.33232394403697      0.59685667501511     -0.50837464010599
  O   1.22915827283442      0.35324486974576     -1.25286703295060
  C   0.01305358807203      0.98146958539981     -0.83230301593781
  C   -0.02516384352437      2.50803416569841     -0.84080917768097
  N   0.58312203806544      3.06970307844250      0.35700949339036
  C   0.45164414079192      4.50837427246767      0.54777878370535
  C   1.58951622174150      5.35009705020949     -0.08651453437009
  C   2.86163008782380      4.72545061944788      0.24604608774351
  C   3.64937701843946      3.83475677294456      0.43524882300539
  C   3.84362101777650      2.42441433297994      0.34813681605544
  C   4.45598187336504      1.62434151449574      1.23522123712326
  S   4.22840622088054     -0.08355639083092      1.34914629744132
  C   3.01218419156229      1.88240523661038     -0.76697766834185
  O   2.81045259089454      2.49201189881713     -1.78851866492964
  H   -0.23994633632400      0.61027966208092      0.16917654097263
  H   -0.72672759553989      0.60068464323948     -1.53335123615467
  H   -1.08414174160715      2.79736976627469     -0.93242393425312
  H   0.49994094453952      2.87518570031546     -1.72409463415450
  H   0.22921387837163      2.58895744011557      1.17373653041915
  H   -0.50379256894446      4.88830067274644      0.15913835568553
  H   0.46770127180794      4.69749543776235      1.62135290267256
  H   1.49962846706191      5.35222771788186     -1.17669866289421
  H   1.49808518496985      6.38224211175853      0.25422071002449
  H   5.09288932750938      2.02309994507910      2.01414204566222
