24
Coordinates from ORCA-job 17319optt
  Br  1.00055842851024     -0.16542477802354     -0.18373664782381
  C   2.87585111172720     -0.05923898179157     -0.06686557905146
  C   3.62573784609147     -1.23041954026799      0.03920489885969
  O   2.95794917732384     -2.40996867974543      0.07656959229980
  C   3.71268630887025     -3.54378527584289     -0.30560607517736
  C   2.86198634840723     -4.72322206811995     -0.10217645836051
  N   2.26049465801419     -5.67929647813738      0.08024694271099
  C   5.00313906994227     -3.66268480917616      0.51025443689623
  C   5.82544244325002     -4.90350487659840      0.16069353432583
  C   6.10045191007512     -4.96452768718093     -1.27548782553116
  N   6.26513894494466     -4.97388963545826     -2.40895313130824
  C   5.81426903468872     -2.38234983279528      0.32654275576333
  O   7.01620920516343     -2.39000868337691      0.38729344015508
  C   5.01757199550418     -1.15151803429667      0.12432641451338
  C   5.64900866587825      0.09176704901874      0.08261355277363
  C   4.90258861318343      1.24574854910509     -0.02623529263643
  C   3.51327507051472      1.16738508876871     -0.09395000475719
  H   3.95908621993178     -3.47361613287552     -1.37282492147643
  H   4.72444360814095     -3.71217960912506      1.56835179500518
  H   5.29353416144699     -5.80933420118539      0.45418075961805
  H   6.77368608067467     -4.86288189213000      0.69548133360115
  H   6.72871934932218      0.11507644798077      0.15040094507263
  H   5.38616019672763      2.21226402770921     -0.05494145269456
  H   2.91601155166654      2.06561003354483     -0.17438301277781
