21
Coordinates from ORCA-job 17326optt
  Br  1.59896582222764      1.15621927160178     -2.90744847517798
  C   2.63396439486355      1.06798474724729     -1.37413739663577
  C   3.65555341756793      1.88937275381891     -1.06029989146871
  O   3.68602730878149      3.21483876614284     -1.49083195670766
  C   2.72254334362475      3.67029424435622     -0.58290309410694
  C   1.40825889001350      3.78852607056220     -0.88074165245582
  N   0.55591312367367      3.09683700839814     -0.05048482670196
  C   0.64447036175913      2.77038633758657      1.17583644237823
  C   1.37369731860923      3.50819669642077      2.18481301513727
  N   1.91169879314496      4.07782783594308      3.02487297457142
  C   0.41074196003645      1.26850695249544      1.42955102859879
  O   -0.58096761919875      0.65670694527253      1.20767713967547
  C   1.79359279632491      0.74191072416230      1.75722345592846
  C   2.66618769368516      0.41351522781416      0.80329134776300
  O   2.24864675430092      0.12169503035709     -0.48284190238030
  C   4.11133430412834      0.71843240221651      0.84067920506998
  N   4.53951567129790      1.51293531076341     -0.06429066572551
  H   3.04312579736559      3.54684079855290      0.44561685141736
  H   1.05130572273054      3.94104591587582     -1.88922815164110
  H   2.19214154006339      0.97517158181347      2.73865505388593
  H   4.77128260499963      0.37575537859852      1.62999149857584
