24
Coordinates from ORCA-job 17320optt
  Br  1.21794471139468     -1.52897437054740     -2.10353479933551
  C   2.31059969862776     -0.39106690143539     -1.10634921531447
  C   2.67548696783076      0.83645232436772     -1.53469179883878
  O   2.10624102307045      1.48097171325342     -2.60518434574244
  C   1.24047894898193      2.44836787981822     -2.04612538072939
  C   1.72535854196178      3.60639442670618     -1.61572610677335
  N   1.05584625648325      4.55367567263755     -0.81530904108561
  C   1.05721299307248      4.45482531092646      0.45280710964915
  C   1.66363343720250      3.31478882853489      1.21373048724413
  C   0.75737813034262      2.54284561926793      2.07359013933036
  O   1.09313356051091      1.62433207860286      2.78815260080845
  C   2.92443845893145      2.92580648100665      0.89485975804507
  C   3.25060095962203      1.54299777358449      0.50362138338913
  N   2.88742739766922      0.39729963474415      1.07887339725256
  C   2.64090750658024     -0.76478256989943      0.27618125366721
  N   2.55851583250544     -1.93642234365491      0.73523934672601
  N   3.46816463882830      1.65274802366526     -0.77558827719063
  H   0.23175387196744      2.09190247922774     -1.87411912146760
  H   2.74560402316680      3.86265757037371     -1.87752497573159
  H   0.50108667707264      5.21445672103364      1.00118263809912
  H   -0.29333543825083      2.88050226677619      2.07649787203623
  H   3.56308379112538      3.62819896227703      0.37706921800314
  H   2.51873782282707      0.42682709765975      2.02448929467739
  H   2.73970018847566     -1.97680467892671      1.73585856328142
