26
Coordinates from ORCA-job 17336optt
  Br  3.52075496958181     -0.57602891395917      1.63969671258853
  C   5.15426079859969     -1.56847639557940      1.63829671524481
  C   6.27344062142038     -0.81726480525547      1.62121792412930
  O   6.29605552110883      0.32431858974889      0.86163531235760
  C   6.20662495648932     -0.22108153202672     -0.44188276792154
  C   6.89348314082415      0.66753002469679     -1.45396310579539
  N   8.19799507642126      0.17732413474543     -1.89075375433864
  C   9.04923873516881     -0.32440049669097     -0.83049680416812
  C   8.97262159777939     -1.83682045187823     -0.63917422893521
  O   8.65500741329498     -2.56580853913828     -1.53883916950656
  C   9.31728990585326     -2.41646905878234      0.73646385419299
  C   8.01991257047960     -2.53086179773216      1.50069499860576
  N   7.38063712961500     -3.53420427403008      1.87240824808820
  O   7.55497856622106     -1.24670373151467      1.71234517675945
  C   5.72524582338106     -1.44961577831232     -0.70291239201805
  C   5.17576808140303     -2.40633824914331      0.33442701878220
  O   4.72970029375661     -3.47918707785829      0.10174249955830
  H   7.01114963014143      1.65289332382138     -1.00094227243502
  H   6.26022517067119      0.77434898345825     -2.33359548372609
  H   8.09213521695693     -0.54586872833131     -2.59420675479428
  H   8.83149812781167      0.18590128384739      0.10817609241727
  H   10.10405146943349     -0.12083342277348     -1.05908533110995
  H   9.99345622960927     -1.75243123349506      1.27798676381917
  H   9.76355711111866     -3.39957172230518      0.60882275649865
  H   7.84939405102285     -4.39766066572571      1.61154437204842
  H   5.72351779183616     -1.78968946578597     -1.73060638034182
