22
Coordinates from ORCA-job 17333optt
  Br  1.46390833611772     -0.44168521640611      2.07655499515335
  C   3.04441718326818     -0.26161407481275      1.08423237967625
  C   3.60226359758858     -1.29978649084377      0.40635031189065
  O   2.91172968008811     -2.40841150010273      0.03822166512133
  C   1.73752747322925     -2.28440190944926     -0.67192166273638
  C   1.16474177394349     -1.20735295248484     -1.23524679831926
  N   1.69703439690150      0.07588029275897     -1.11769377932506
  C   0.99849100055387      0.97282539485795     -0.56325253552692
  C   1.64169799517835      2.25819257110110     -0.06780539155898
  O   1.03049909209123      3.29406820977478     -0.20358580266500
  C   3.00482513285899      2.17813330817672      0.45946052051570
  C   3.64199130470334      1.02583535494721      0.78626792315793
  N   5.03450560487007      0.91185950200937      0.71759899608072
  C   5.59344098069627     -0.25403015646732      0.32141694780323
  N   4.91439709258156     -1.31751054087744      0.05905250670692
  C   1.07229604803363     -3.55143192294864     -0.77800407457873
  N   0.52255070823942     -4.55317726384602     -0.87109889844220
  H   0.21640062279786     -1.36642969560121     -1.73888806135972
  H   -0.06117952508189      0.85335341222954     -0.31568842931826
  H   3.57405019417699      3.09712314819941      0.37947322901934
  H   5.58690097083281      1.75691589367508      0.67921674469619
  H   6.67151033633060     -0.25735536389001      0.21433921400889
