24
Coordinates from ORCA-job 17341optt
  Br  1.27005503418581     -0.14413210668709     -0.38890819200638
  C   3.13856692971967     -0.08971531384423     -0.20222838351674
  C   3.84768561820487     -1.28797451127401     -0.14332082121993
  O   3.14703785199440     -2.43199784330691     -0.20279325226109
  C   3.87461898363845     -3.65358884933635     -0.27988385711540
  C   5.12286406715645     -3.57342536601368      0.57434470183305
  N   5.93645860060949     -2.47427648482156      0.08480726638074
  C   7.08381179103573     -2.70479959376756     -0.68508921607540
  N   7.78142634310659     -3.75031352706110     -0.76850081751974
  C   5.24855171967883     -1.25986522074399     -0.00610920047702
  C   5.89630952302996     -0.02324394747660      0.09961944355854
  C   7.29721148715915      0.03039599431238      0.39071472414527
  N   8.41466227412542      0.06838592896127      0.64729875511890
  C   5.16498605340272      1.16826688181136      0.00152695397497
  C   3.78606435898449      1.13026430260555     -0.14770722904121
  C   5.82385502666617      2.43743267734975      0.09074468505866
  N   6.32705779335743      3.46583074594229      0.15752436308468
  H   4.14726686195447     -3.84484601806569     -1.32087493983665
  H   3.18934206198704     -4.42543585830708      0.06335465352517
  H   5.67624988872104     -4.50536485486806      0.51085515537932
  H   4.86213963737754     -3.40070976370023      1.62003509092278
  H   7.36653121281936     -1.84023589044447     -1.28120420523594
  H   7.48265748072057     -4.50605267178816     -0.15691263629252
  H   3.22158940036425      2.04940129052417     -0.20729304238403
