18
Coordinates from ORCA-job 17342optt
  Br  1.68852941240260      1.51652543019126     -1.16822691877196
  C   3.40080323559719      0.94817150511419     -0.68874619964849
  C   4.39362613438863      1.79570580749620     -0.36358853331173
  O   4.43375603660561      3.15841483554770     -0.29730075502217
  C   5.76628560447376      3.60727199227462      0.11884291050153
  C   5.62299287799236      4.38064010015364      1.36508488463941
  N   5.54140313024938      4.95906015348288      2.34816318205787
  C   6.31731830950359      4.45707906959957     -0.95190767941461
  N   6.77867677358181      5.08756883466370     -1.78687567369582
  C   6.56942158473178      2.32786732499532      0.31340923793709
  C   7.70739351798246      1.67196092326286      0.63773833442998
  O   7.49438640803286      0.30874642953968      0.51928222584222
  C   6.21760504341081      0.12019127517747      0.12145732204206
  S   5.28462255816962     -1.28626926959889     -0.21152125306395
  C   3.63838465679211     -0.51619006527237     -0.67992636555817
  O   2.81804901738695     -1.33188357750822     -0.96410824565263
  C   5.65475644501650      1.32348960270312     -0.00608736902615
  H   8.69598925368194      1.95364962817724      0.95031089571554
