24
Coordinates from ORCA-job 17344optt
  Br  1.52195860164098     -1.12447008122841      1.50419117811294
  C   3.12400270835077     -1.10268564151451      0.51862206535344
  C   4.27184134122296     -1.51638376290857      1.10895770909952
  O   4.25638008940250     -2.29801829752045      2.22743584987480
  C   4.48727539783017     -3.62459737074786      1.77379762851258
  C   3.55511706429007     -4.22392934133533      1.03567659476306
  N   3.70305938528454     -5.44472010666934      0.36741324638473
  C   3.09137919952892     -5.57469450434295     -0.75023469989127
  N   2.31194472917070     -4.56493901566399     -1.29198021621319
  C   2.80069076014026     -3.50162575667070     -1.78771774276478
  C   2.17723391629067     -2.24384376873760     -1.38906560074507
  C   3.06645986743999     -1.31115317485350     -0.93296484098888
  S   4.39749962197252     -0.84810689635450     -1.95763871743661
  C   5.71240560637963     -0.57430801348804     -0.80115024227534
  N   6.75311935497777      0.07389664593630     -1.08258802338795
  C   5.60773744604600     -1.27855222773492      0.52333148102939
  N   6.63659791511006     -1.64311650915355      1.16154618898897
  H   5.47905113365125     -3.99689160953682      1.98555406000526
  H   2.60071379212456     -3.71565333119743      0.92433729809105
  H   3.09482226074391     -6.54247654703709     -1.24531970378699
  H   3.81257026983147     -3.46193717688014     -2.19864932372487
  H   1.25425697874955     -2.37791939303366     -0.84136725618328
  H   6.74364749403223      0.47748145810680     -2.01826800221687
  H   7.47623506578846     -1.34235557743371      0.66108106939935
