24
Coordinates from ORCA-job 17356optt
  Br  1.02797048757748     -0.44805857354316     -0.44214538762145
  C   2.85806746286110     -0.18090036600737     -0.21489543073423
  C   3.70865343502960     -1.22403969989252     -0.09671279985697
  O   3.46045650619099     -2.55594013586146     -0.11617720050944
  C   4.67549666144800     -3.15282638195694      0.04683131670431
  C   4.73007899874926     -4.64504757120860      0.03388840435257
  N   4.34228528975098     -5.21340986421341     -1.23338487142586
  C   5.21933125548055     -5.23303834919839     -2.30001413398020
  N   4.97004405916485     -5.45156474593186     -3.51791302788780
  N   5.64826939478034     -2.33454985001042      0.16280375086466
  N   5.05215020694974     -1.09609860409746      0.07733578780746
  C   5.64788518244476      0.13994347064401      0.13601300481690
  C   7.12719925467141      0.20827728995162      0.32436369771316
  O   7.70796592395876      1.25427454523185      0.36815616508258
  C   4.86213987965706      1.23176946373413      0.02558964689091
  C   3.40284190927784      1.17762574862537     -0.14918712848955
  O   2.71709189097115      2.17787647861043     -0.22918543276122
  H   4.07782907913550     -5.02907549075665      0.81913795044883
  H   5.75236726157225     -4.93522861973324      0.27323438639091
  H   3.35617979543054     -5.22278087770761     -1.44844562515745
  H   6.25380709146267     -5.06496833661322     -1.99492347370360
  H   3.97468155662543     -5.58987433638975     -3.69532999773169
  H   7.64644953488673     -0.75757166112981      0.42098771531447
  H   5.32675788192291      2.20720646745453      0.07497268347270
