23
Coordinates from ORCA-job 17355optt
  Br  0.95470389990801      0.10593501636890      0.21121607367393
  C   2.79238165810136      0.04183603300212     -0.03611062169190
  C   3.51783186552072     -1.06865702528185      0.08480448302788
  O   3.11620533704343     -2.32342002371086      0.38491015694572
  C   4.25342769757577     -3.10130403407026      0.38127172876978
  C   5.37542748657925     -2.43304750850557      0.06852220603553
  N   6.63242286870731     -2.98317370932694     -0.14377378042033
  C   7.78970776240257     -2.48726097273079      0.40764390769317
  N   7.97978202575325     -1.47716552754245      1.14162633582913
  N   8.93488133783591     -3.24990087430046      0.08593580141433
  C   9.03589805570678     -4.39477733670447     -0.63613947252763
  O   8.12050564537949     -4.99254085744790     -1.15968846599904
  C   4.94704245740204     -1.04856533702258     -0.13712032684655
  N   5.62573825562294     -0.01496448703172     -0.45468984575189
  O   4.89337923420459      1.14439642862736     -0.57981660025994
  C   3.52317000105941      1.26073524437060     -0.39632881066527
  N   2.96093183615185      2.37514765617680     -0.54126230300130
  H   4.09746864304817     -4.14515872306186      0.59769855918358
  H   6.71555317953943     -3.85969340179190     -0.64988421052614
  H   7.13536475582552     -0.94344971912876      1.31412053642952
  H   9.77638845181623     -2.85348846926148      0.47760001733044
  H   10.07432203326019     -4.74700699239127     -0.70540614833758
  H   3.63146551155562      3.09852462076541     -0.79312922030544
