20
Coordinates from ORCA-job 17358optt
  Br  0.93927081510628     -0.28171864450117      0.19261612254646
  C   2.78859180024635     -0.04009509152176      0.11164731880217
  C   3.62895586658121     -1.07469906103618     -0.04259540257470
  O   3.24166993162262     -2.38116931815681     -0.16419792288132
  C   4.38329836981386     -3.09970430103723     -0.30553196258155
  C   5.50355613387145     -2.34725394863694     -0.24039899758389
  N   6.81874739883526     -2.79584028388833     -0.26239265737334
  C   7.23229990513817     -3.95718242818624      0.34119880451514
  O   8.34943189292019     -4.38664952595340      0.27451805361980
  C   5.05857142121735     -0.97705272764901     -0.08663275376454
  C   5.74973471765178      0.19810730214999     -0.01021176264018
  C   7.17114753951720      0.20521310976583     -0.10484038553046
  N   8.31623981367714      0.23883647590196     -0.20335218942518
  C   5.11231288855937      1.51115295409100      0.12983941998057
  N   5.65444139000228      2.65071413914019      0.18682748946622
  S   3.32758371134244      1.58914133520146      0.25252339564690
  H   4.25595269591905     -4.16109568410883     -0.44203340947326
  H   7.53852385273436     -2.23009526209999     -0.69473297982121
  H   6.42178740101020     -4.45311759167658      0.90081475944620
  H   6.67088245423338      2.60550855220204      0.12493505962617
