26
Coordinates from ORCA-job 17360optt
  Br  1.18858736821392     -0.05655580395821      0.12406843750358
  C   3.05814727173466     -0.09503356834925      0.09847189126558
  C   3.71749275142761     -1.26693645271629      0.07724305477196
  O   3.24059017433645     -2.53574131954204      0.06197616633556
  C   4.34098399668680     -3.38463716200374     -0.33762299465700
  C   5.61868714668236     -2.63478710786771      0.08845466730531
  N   6.75875469423869     -2.81129571344094     -0.77082782165099
  C   7.27908639831202     -4.04369440936114     -0.96602908095172
  O   6.78112634010113     -5.05210214220152     -0.52082821890470
  C   5.13110119479857     -1.21062713389258      0.05868611891712
  N   5.85373223120608     -0.15587698698558     -0.01746902211970
  C   5.19228572323767      1.07126867600362     -0.06989272758824
  N   5.77023059242468      2.18795817889661     -0.25999579036168
  N   3.78546055358737      1.07085475099913      0.12262076791641
  C   3.15096018578320      2.36791441740557      0.07839245807653
  C   2.83385145902403      2.79306009989561     -1.34160573242656
  O   2.93877568635553      2.07008585668525     -2.28705546904155
  H   4.32565547049280     -3.50514567461806     -1.42358241765164
  H   4.21979761036819     -4.34636542886598      0.14703399531901
  H   5.87034797733161     -2.90542288315279      1.12086020112634
  H   7.25181029515716     -1.98304947700247     -1.07169835348871
  H   8.19123308860149     -4.04365266488235     -1.58090699972741
  H   6.77014960662379      2.03325837123972     -0.33563674220476
  H   3.83356037929177      3.09641203776890      0.51366763105196
  H   2.22676871321250      2.36332778816265      0.65698693866876
  H   2.47182309076980      3.83278375178360     -1.44331095748344
