24
Coordinates from ORCA-job 17364optt
  Br  0.95290521314288     -0.16108520685968     -0.28736905352934
  C   2.79901004918544     -0.14693616079841     -0.07346806025819
  C   3.49158203056331     -1.26450506469898      0.18607317216388
  O   2.90524438396923     -2.46242665031946      0.36554592314396
  C   3.16394981562591     -3.46513337089532     -0.63267840103455
  C   4.41850473827087     -4.24904646343464     -0.30787771921339
  N   5.61145716921899     -3.41706552291941     -0.34679690103448
  C   6.40931473219249     -3.42242595057783     -1.46180447773528
  O   6.22186739077023     -4.11619711192770     -2.42588273217661
  C   5.78853895500416     -2.36657441154947      0.63464360766625
  C   5.53726221490968     -2.86861449384868      1.99729745991670
  N   5.34263655253849     -3.25568486920093      3.05658114903173
  C   4.93553078054910     -1.14392220361119      0.34086383919027
  N   5.58512636486277     -0.05561022396287      0.21078658602602
  O   4.88521380732964      1.07880041664533     -0.07239984858568
  C   3.50480644735992      1.12933904127677     -0.20033074265914
  N   2.93217262415683      2.22014693365654     -0.43098335195824
  H   3.23953208238116     -2.99244168176551     -1.61524680549549
  H   2.29281827292414     -4.11732773842863     -0.61808297341303
  H   4.55940526387483     -5.03723739571883     -1.04579740175525
  H   4.32819547784868     -4.69521815624833      0.68413170247738
  H   7.25724701957035     -2.72352732902716     -1.37981724861182
  H   6.82529158089284     -2.02471904066313      0.60147398925902
  H   3.59938703285797      2.98741265487755     -0.48886171141470
