21
Coordinates from ORCA-job 17368optt
  Br  0.92465286945830     -0.92697051109779      0.71981884349392
  C   2.73797168201725     -0.62207880014535      0.35092858853694
  C   3.58955154366706     -1.69181582314692      0.10342768783430
  O   3.09857394531935     -2.96065097466343      0.16839124477099
  C   3.32724377985560     -3.75248687343646     -0.98511817164151
  C   2.14159286027969     -4.56500036042926     -1.26450052817928
  N   1.21828037681372     -5.19142502097805     -1.51552693837963
  C   4.55689073768308     -4.60840860985370     -0.68965468275812
  O   4.56122474723843     -5.79687314258491     -0.76640205179243
  C   5.81681536196772     -3.85308935226141     -0.27180408805523
  N   6.87186236121171     -4.47942440636554      0.01927781639269
  N   5.87344734190942     -2.46696225335632     -0.37985185356749
  C   4.93903624007952     -1.46533785907952     -0.17309872624239
  C   5.32091501767857     -0.11097013703840     -0.21692495422165
  Br  7.12402284049466      0.32861676353127     -0.62927587249839
  N   4.52355219782024      0.89380178052487      0.02074243762445
  C   3.24874839258895      0.66291560854662      0.31223504498052
  H   3.52785721603372     -3.11899350283205     -1.85723751340944
  H   6.71109403569382     -5.48420665749743     -0.04736323633619
  H   6.83432402173106     -2.14575797830253     -0.33516356743968
  H   2.61534243045808      1.51811811046633      0.50710052088763
