23
Coordinates from ORCA-job 17377optt
  Br  1.44822346792069     -1.57989096338019     -0.44837932653520
  C   3.22925351818043     -1.09382797294521     -0.13297464819084
  C   3.82438744601367     -1.18601428307310      1.05132430294893
  O   5.13817287496007     -0.73017934209953      1.14594438539940
  C   5.87889269178699     -1.06454015813417      0.04202477018911
  C   5.26854425998299     -1.23460641498977     -1.12109509328473
  N   5.75360690641038     -2.04125913998153     -2.13131940721680
  C   6.35145750361872     -3.28538463382995     -1.93013510784146
  O   7.08615273846164     -3.76362812104356     -2.75211595021179
  N   6.11379967520291     -3.88299823458505     -0.69226581762199
  C   4.89497052369074     -3.88403038509830     -0.01377738874246
  N   3.80255599225559     -3.94728333385340     -0.63805971101465
  C   5.01984636949272     -3.86597026606911      1.51197923976330
  O   5.96172883649871     -4.41573275376567      2.02097784810569
  C   3.94015314995916     -3.24820746790691      2.35491399073602
  C   3.38862825483457     -2.04642488652191      2.17117461665410
  O   3.94680995169789     -0.77306796228160     -1.24292479337921
  H   6.90910244206440     -1.31908951088074      0.23784778603578
  H   5.83075699500243     -1.70116810136505     -3.07848562531130
  H   6.84067431615226     -4.49818583685510     -0.35739658032095
  H   3.00811113425138     -3.87827936495717     -0.00240477035813
  H   3.69136754973736     -3.82934448880312      3.23580493310740
  H   2.64680340182422     -1.68388637757979      2.87334234708976
