23
Coordinates from ORCA-job 17378optt
  Br  1.38735675393000     -1.55649284856703      0.84001545796625
  C   3.13888150032842     -1.04431562135942      0.40315955838700
  C   4.16123744286147     -1.28424335965912      1.21570494325695
  O   5.43959018851878     -0.85705898629290      0.85673810277307
  C   5.86008552202486     -1.26995996255527     -0.36902755902160
  C   5.02917544391719     -1.28823533990778     -1.40461300996724
  N   5.27723385335593     -2.10197190089344     -2.51970963492949
  C   5.51631409559204     -3.45721249308084     -2.49365677821400
  O   5.59642752350600     -4.13300376279544     -3.47122993195714
  O   5.76046397475415     -3.97828229802396     -1.24066822152481
  C   4.79763970390482     -3.94216997474549     -0.25335090669193
  N   3.55852376585611     -3.98707472137089     -0.41336723266423
  C   5.43305819671077     -3.96101903094658      1.12181356502856
  N   6.56087030891291     -4.49619609395276      1.32404102875281
  C   4.69043802968621     -3.41119216553794      2.29261636581796
  C   4.12819010088473     -2.20715989383876      2.36688057975759
  S   3.44397697218727     -0.48300374996911     -1.23318622271890
  H   6.85971034591820     -1.68622443792999     -0.38482990106398
  H   5.05923449081486     -1.76422835264271     -3.44590676520601
  H   3.26766510895100     -4.04496608788877     -1.38986574782585
  H   6.97876360833824     -4.82922911143918      0.45397152271525
  H   4.70278021859362     -4.05001742034943      3.16737502275375
  H   3.62638285045236     -1.89674238625312      3.27509576457596
