26
Coordinates from ORCA-job 17376optt
  Br  1.27257324415213     -1.28035418598125     -2.00042078680237
  C   2.62991299779514     -0.31567828813882     -1.15138003375140
  C   2.89925113591266      0.97366848157377     -1.43996543453230
  O   2.10947109900261      1.73710803612991     -2.24264229930366
  C   0.99931342576658      2.30268216374565     -1.50628553842746
  C   1.33535522673152      3.65450818024128     -0.83338414247818
  N   0.88032098097053      3.83498638207659      0.56373683935231
  C   1.84771201124404      3.80673918675817      1.59124723792244
  O   2.12388675831523      4.74742927041792      2.27638782989360
  N   2.41524762002648      2.53157167321197      1.73176749335140
  C   3.81160705389716      2.29186713285320      1.69968043720383
  N   4.64920945296005      2.95667225672672      2.35253231809985
  C   3.98889344449619      1.26019947712033      0.61540583205041
  O   3.66705705833828      0.00890667884530      0.97070892108655
  C   3.32483810477914     -0.93310318847643     -0.02546121352849
  N   3.51261201950369     -2.15478308374066      0.15984359587896
  C   3.86905202102990      1.69210021859913     -0.65124693770408
  H   0.64801553678905      1.57964028177084     -0.76595758230973
  H   0.21432103759028      2.42825332580602     -2.24846389713053
  H   0.86640919607134      4.44953330844583     -1.41071536159359
  H   2.40681618085079      3.83049902835121     -0.91068977487288
  H   0.35914118415832      4.69507302783638      0.66636383591815
  H   1.88201639547549      1.83280267840378      1.23326297595110
  H   5.59651977080776      2.65776228938294      2.13198257041542
  H   3.94075973214148     -2.34060248520322      1.06478274535763
  H   4.10168731119412      2.71551815324343     -0.89408963004698
