24
Coordinates from ORCA-job 17372optt
  Br  1.05914180249635     -0.08087289810951     -0.21613018360118
  C   2.91956755627649     -0.12373977031179     -0.08418666505304
  C   3.59392732285499     -1.28494430136432     -0.13526343262199
  O   2.92010562813516     -2.42953127421017     -0.22237671974242
  C   3.60679949471579     -3.61012626269968     -0.61166549845261
  C   4.80310115738017     -3.75382190441440      0.30882718119978
  N   5.58143775650224     -4.93370861182630      0.05567906628798
  C   5.09811360304509     -6.15411900195091      0.40409199524322
  O   3.97760400063847     -6.33701926886976      0.81583974364601
  C   5.68640064222199     -2.53973214731829      0.10961648853302
  O   6.88677430030726     -2.64065240010666      0.09132457499581
  N   5.00855495545574     -1.33324134672232     -0.08235872431827
  C   5.76031684442616     -0.10215869440646     -0.17173125809739
  N   6.98784833835986      0.03065046658496     -0.39648008886548
  N   4.99578771809386      1.02256181699334      0.06550898621610
  C   3.62028293790997      1.14864536277743      0.07487098148107
  O   3.09143653326264      2.22403757025854      0.19136671908309
  H   3.91895496702875     -3.54487110800986     -1.65776145811511
  H   2.90663762059037     -4.42845090866207     -0.47855997866154
  H   4.42727042139930     -3.75379903575193      1.33962570946410
  H   6.56764300720901     -4.80532571629841     -0.12095700558139
  H   5.82885036136758     -6.96317620522624      0.25929149979208
  H   7.47773309825608     -0.84609968737075     -0.50584353423258
  H   5.52170993206657      1.88649532701561      0.06827160140074
