29
Coordinates from ORCA-job 17383optt
  Br  1.49970672581134     -1.62085284973217      0.75444422426590
  C   2.53522144494520     -0.18821411956846      0.06982148806152
  C   2.82690771929321      0.89284419260928      0.90569052540842
  O   2.21237493180807      1.04457236847295      2.10736610561843
  C   0.96694045693806      1.76700983817791      1.95479189163025
  C   1.18621015523926      3.17686639805802      1.41532967824629
  N   1.40450436322093      4.08723942164824      2.27819415319894
  N   1.18910090124478      3.31276390061345      0.04670772102290
  C   1.88122332242235      4.40462621602964     -0.63843928285398
  C   2.64926267026832      3.97533314612336     -1.89888897859111
  C   4.02180663693592      3.28342538016714     -1.70519293484865
  C   3.81254735146969      1.98418469726977     -0.97976091377718
  C   3.48192250073001      0.84669312988845     -1.70738226189749
  N   2.90498048023110     -0.23577643626736     -1.18519473797170
  C   3.61189355935431      1.92883102499054      0.40430930493793
  C   4.11414739907355      2.94990664170531      1.38290242011451
  O   4.71992022635220      3.94420636256633      1.07851472821482
  H   0.55486011082885      1.84009594401413      2.95512733930107
  H   0.30322776138083      1.18130692387783      1.31084612983965
  H   1.56996544879899      4.99873986981099      1.85537751453099
  H   1.05962446334856      2.46730272660667     -0.48753277222129
  H   1.15840640453757      5.17276929912897     -0.92427304573666
  H   2.57962683321013      4.86512039772713      0.06412528491587
  H   2.00587276859472      3.32929360330738     -2.50590816356127
  H   2.81744614369083      4.87820457125670     -2.48879735040486
  H   4.69793407397301      3.94362425776326     -1.17018002859530
  H   4.43833821134598      3.08581074992263     -2.69457161015133
  H   3.66064856647879      0.82032755604691     -2.77745634273595
  H   3.93737836847340      2.68874478778495      2.43502991403927
