25
Coordinates from ORCA-job 17387optt
  Br  0.87229515002352     -1.31328012956435      0.10927817552026
  C   2.26734180111854     -0.09334656911468     -0.10597056299871
  C   2.78560931164794      0.66513559680158      0.86175317241558
  O   2.22034756802501      0.80272207436810      2.09352973082717
  C   1.22143671545183      1.84558667003357      2.08439281868665
  C   1.55757606007799      3.06349997770387      1.20587770078586
  N   2.22520564294255      4.07873827274070      1.56287609529337
  N   1.10320088173021      2.95208405957963     -0.10230466341127
  C   1.42191803227948      3.76841666488497     -1.20632381795736
  N   0.48645884217511      3.97438506208809     -2.02930105621758
  C   2.86580186919378      4.23449375382511     -1.45157444708816
  N   3.95062930897770      3.45631025898175     -0.83264768318462
  C   3.64618862717470      2.14049767801946     -0.59930077356890
  N   3.69441749260017      1.66665005206623      0.58710415313953
  C   3.15486379249536      1.31974534977976     -1.75732040753001
  O   3.25806873818038      1.62110382335128     -2.90389622327671
  O   2.65441819289366      0.10068445125385     -1.39667780116675
  H   1.12290306799822      2.16617397389489      3.11868081612012
  H   0.27527545704836      1.40844458856491      1.74999485073702
  H   2.56348843225180      3.96945697470912      2.51610132098439
  H   0.23767145033065      2.44891314584770     -0.24635900818417
  H   0.82234480024285      4.44208063718016     -2.86810015830459
  H   2.99494878407205      4.24969557260680     -2.53271421290408
  H   2.96135022254187      5.25110888794938     -1.07416396595323
  H   4.21423975852622      3.86969917244806      0.05506594723621
