24
Coordinates from ORCA-job 17392optt
  Br  0.90182912508052     -0.37447138312238     -0.54481665111907
  C   2.75089954759852     -0.24934456871194     -0.29221570082664
  C   3.48873095486450     -1.35908346801089     -0.05363350332934
  O   2.87061392331995     -2.56020206634902      0.04485628190000
  C   3.17325571452553     -3.51076717599225     -0.97485012430092
  C   4.40836644100126     -4.33507046276567     -0.67678976314161
  N   4.48265016277546     -5.58730114606440     -0.73152519103642
  O   5.55718193642381     -3.63924830683859     -0.47402486580060
  C   5.63897970215624     -2.62723703541180      0.52480183331322
  C   5.21477959558846     -3.18826028189017      1.89123657620712
  C   5.35319240636715     -2.19164501941279      2.94647191993869
  C   5.46272084513508     -1.34779689304452      3.78859561380879
  C   4.92592135329767     -1.34014895739359      0.15303524107017
  N   5.65236517642212     -0.28646530830998      0.08736172487885
  S   5.07585492632830      1.21577839788230     -0.19951425844727
  C   3.31405493567028      1.10277151214984     -0.38938011038825
  O   2.68430838523496      2.10357029484412     -0.60294435046911
  H   3.30839269601552     -2.99623458132356     -1.93115757841483
  H   2.30327104909457     -4.15935870075944     -1.03955978626486
  H   3.58198548356150     -5.99767539102201     -0.96661824143845
  H   6.69511313565355     -2.36951790857466      0.56123230596005
  H   5.84240963371235     -4.05671876031093      2.09955600488073
  H   4.17986541114513     -3.53295182880285      1.85129784746934
  H   5.56225745902748     -0.60562096076475      4.54458477555040
