23
Coordinates from ORCA-job 17399optt
  Br  3.25386432766124      1.04411356856099      3.96167413574398
  C   4.41632209460484      0.76647289839334      2.53124005351511
  C   5.71633800496910      0.44390359274001      2.62278532359605
  O   6.28860736809909      0.23610754034724      1.37905175020244
  C   6.10669972204140      1.41420626407853      0.64894060305979
  C   4.84540962983653      1.79679103330992      0.54542339910043
  O   3.91717900827895      1.08039304122350      1.30775811741985
  C   7.42499501954357      2.10117637545566      0.59346864415058
  N   7.59996185553289      3.03992730598120      1.41692261108771
  C   8.89296818087397      3.43328841434227      1.83180905974756
  N   9.64729865269213      4.24585047465837      1.21570091385970
  C   9.30138853914150      2.94968983818264      3.17400014044372
  C   8.78729735875489      1.90315318040444      3.85214718082880
  N   7.83181989962435      1.08575386315556      3.24542546164768
  C   6.66085241893766      0.86661213309689      3.66510285753624
  C   9.23963325223814      1.56176867939551      5.16727556070679
  C   9.58736217742719      1.23393673062521      6.26688179545784
  H   4.44037593597319      2.65753353843119      0.04084499893136
  H   8.24294262544699      1.57683206191397      0.09400739946830
  H   9.22776459317747      4.53099628069771      0.33088400325185
  H   10.08943499984301      3.53060323302493      3.63208693801624
  H   6.27254400858753      1.15660529796458      4.64421424898912
  H   9.90694032671425      0.95028465401632      7.24135480323881
