25
Coordinates from ORCA-job 17398optt
  Br  3.24711744500731      3.66149409038056      1.94605939798367
  C   4.78408782407639      2.65346717560041      1.67555470609578
  C   6.04189584272498      3.06202381017956      1.85998117333781
  O   7.06274332276946      2.15586762111960      1.55883573870388
  C   6.73334886741691      0.82607860672002      1.73662331843622
  C   5.47337665613602      0.45341449033372      1.58818790480278
  O   4.50337317916867      1.38546848403935      1.25591569878468
  C   7.87194987561218     -0.05154638164934      2.17707421486248
  N   8.22853079264465     -1.11978358061361      1.60100200685720
  C   8.55113562499039      0.56052021071950      3.33949051980796
  C   9.74219399346599      1.16654392985382      3.26577597841315
  C   9.83329616985182      2.40604700549383      4.03890894670207
  C   9.92172834249347      3.53162542762195      3.30779709262713
  C   8.75144601758704      4.40080557262813      3.42240316986310
  C   8.00147661044834      4.47691014980647      2.31345147464156
  C   6.52334515989071      4.38760804152511      2.40100597110512
  O   5.78151991949292      5.18418140107775      2.91511360691533
  H   5.09252506912482     -0.54398592593661      1.73884242155224
  H   7.66020241313923     -1.28792395591545      0.76968329230957
  H   7.87514136137796      0.86129630604004      4.13652286225614
  H   10.39928751821437      1.00363003879912      2.41824036775847
  H   9.26335755576425      2.42914809961364      4.96357956721383
  H   10.39303726187535      3.48695202262024      2.33059722933312
  H   8.31547800095501      4.58599013063313      4.39905522141221
  H   8.43240517577167      4.13516722930902      1.37929811822449
