21
Coordinates from ORCA-job 17407optt
  Br  0.26406514687325      0.47854112365640      0.44861560526345
  C   1.96005938657417     -0.30600453378229      0.47751413448747
  C   3.10110458285081      0.34721008551491      0.26365163469951
  O   4.27335641841405     -0.39282755380730      0.48031740251003
  C   4.19935913405629     -1.54187202581153     -0.24778705748982
  C   2.98263893414277     -2.09475836980400     -0.37835061416475
  O   2.02008049237819     -1.65471436389557      0.56902615114239
  N   2.57896012042601     -2.28240252009532     -1.69025927729089
  C   1.47413644614193     -1.79923540634047     -2.05666284630445
  O   1.33353911935304     -1.32908422232435     -3.33331526206226
  C   2.37822540013240     -0.55302792410504     -3.79465597762113
  N   2.65933737736519     -0.45130444539726     -5.00677742953359
  C   3.21298048448225      0.22630316979550     -2.78303152665238
  N   4.46252030094241      0.18272565968792     -2.71483890768469
  O   2.49628095015826      1.02516555139691     -1.94531897973391
  C   3.15418771096633      1.46137370829031     -0.75193461672176
  O   3.57880879252813      2.55061059164998     -0.65387966296178
  H   5.05877546891630     -1.78721221851048     -0.85268896339379
  H   0.60033147781690     -1.60833453915805     -1.44066062970721
  H   2.06641878978638     -1.05356006929552     -5.57739867000567
  H   4.83883346569490     -0.44359169766474     -3.42256450677472
