23
Coordinates from ORCA-job 17405optt
  Br  3.48815762387185      1.73239499447736     -3.63323401251480
  C   4.87735346262158      1.44692159365278     -2.41701067422570
  C   6.18079369031404      1.51361083408407     -2.71070700542541
  O   7.01982727458531      1.21789050089273     -1.64704152995615
  C   6.61060764256026      1.82146135360937     -0.46135819068370
  C   5.31927538600810      1.79672526594000     -0.18652469391790
  O   4.47110647007999      1.22335453763204     -1.14019108817857
  N   7.73877272755545      2.45581748245313      0.08100817683937
  C   7.85541644073909      3.64043081976295     -0.35605804924413
  C   9.17555006825667      4.22876633069824     -0.86310376985225
  O   10.03198247811599      4.83525735657734     -0.31155241505464
  C   8.92095345618044      3.99226673658863     -2.35116467420410
  C   8.88410268591016      2.77582570836711     -2.90599964650240
  C   9.59692993740022      1.65001477937053     -2.21477945517999
  O   10.28040866830842      1.82983390157534     -1.24777085702733
  C   8.03659713002292      2.45280941741442     -4.08239433969234
  C   6.82103188259867      1.89870797567815     -3.96390506889242
  H   4.82564917711661      2.21517861540725      0.67363567557745
  H   6.99014677917862      4.16757247924870     -0.78218552504217
  H   8.40877755141817      4.81730824922195     -2.83964763336120
  H   9.45933323204609      0.65126311252770     -2.65870952089824
  H   8.39555879191893      2.69953669231743     -5.07493310309852
  H   6.22866744319232      1.73905126250275     -4.85637259946481
