23
Coordinates from ORCA-job 17410optt
  Br  1.15696911424471     -0.15343618455592     -0.07566012091245
  C   3.02360825910307     -0.04444118640198     -0.06987006551497
  C   3.78760156143525     -1.21038605064961     -0.07088930877505
  O   3.24960380081543     -2.44363029799537     -0.07578357132789
  C   4.31496008789505     -3.39525111695620     -0.07703944570787
  C   5.61447610207930     -2.59305086281189     -0.07411843644388
  O   6.72200742758524     -3.05618367943973     -0.07936595924968
  C   5.17778700985640     -1.18392770151429     -0.06711737704674
  C   5.84114790438940      0.03769247029266     -0.06031538542631
  C   7.28951948300117      0.38627197667734     -0.05773872530196
  N   8.32466210002856     -0.34042973775146     -0.09321140096661
  N   7.30537196294527      1.76363691430499     -0.00498858440713
  C   6.00831953750168      2.39728131445322     -0.06141250763709
  C   5.09869457054096      1.20169548653083     -0.06225745687644
  C   3.70049175705161      1.17531956014773     -0.06578388633557
  C   2.99904654999388      2.42583372526733     -0.06573885608870
  N   2.50497669183898      3.46094536898726     -0.06514437752169
  H   4.24505566960077     -4.01647221837604     -0.96989173621812
  H   4.24371065261469     -4.02054761045804      0.81291264211153
  H   8.08170021204511     -1.32735365971991     -0.11614961674080
  H   8.17286521609451      2.26153691455653     -0.10194009497545
  H   5.86773392336508      2.99830770250756     -0.96602108155775
  H   5.81669040597380      3.04358887290497      0.80052535292062
