23
Coordinates from ORCA-job 17411optt
  Br  1.17922162448652      0.05325541311904      0.35919717278668
  C   3.04244197744200      0.11990659350186      0.08351242457147
  C   3.72136846543662     -1.05201223903716     -0.18687875691022
  O   3.03230760652508     -2.22407293969324     -0.22060343567201
  C   3.71470974296178     -3.28530529920161     -0.85579293501625
  C   5.14202976641658     -3.35592066449104     -0.33097719502014
  O   5.82165391084391     -2.15448885533023     -0.67041913870420
  C   5.11654509167265     -1.01467968906385     -0.39958853688613
  C   5.81019870268397      0.17490661462567     -0.36142174872909
  C   5.10619851875586      1.34363393450661     -0.09511931899583
  C   3.71989421133423      1.34168683774178      0.14178725323327
  C   3.21862232693875      2.65923776557170      0.40749713247997
  C   4.19208105085952      3.59385522011346      0.36675246260732
  S   5.75180156163426      2.94657758900495      0.00910616045552
  C   5.85955882292503     -4.48637985289700     -0.90836353536585
  C   6.39921279317910     -5.44094886681349     -1.38473836358288
  H   3.73983538982020     -3.13226875389588     -1.93866341604690
  H   3.16810730069485     -4.19564161728859     -0.62335452557851
  H   5.11063282260445     -3.45355131211006      0.76057679205193
  H   6.87824515930383      0.16429872598764     -0.53112458108885
  H   2.18155008300164      2.87363654121180      0.61685013294638
  H   4.08629049157823      4.65428779096742      0.53114737316629
  H   6.88949257890092     -6.28401293652975     -1.81038141670197
