23
Coordinates from ORCA-job 17417optt
  Br  1.29345921035609      0.31607939666719     -0.28566509675122
  C   3.16811976971550      0.20857861253586     -0.19074247206337
  C   3.79868494750717     -1.01723951024658     -0.14286106709479
  O   3.18162121125502     -2.20598478089784     -0.14990402455259
  C   4.18395977339480     -3.23119497130222     -0.06578006516635
  C   5.53835831981826     -2.51242523035508     -0.03511383486962
  O   6.61285189072027     -3.04384388439666      0.01399369955385
  C   5.18659182999972     -1.08894779986627     -0.07856324698975
  C   5.91615834455938      0.08739866495735     -0.07095748533813
  N   5.33299059992746      1.27410613580873     -0.11361565587759
  C   4.00423587815925      1.33971151864493     -0.16392946907719
  N   3.41050284957620      2.58867400241795     -0.20348176060271
  C   4.01765285659073      3.81557497234536     -0.06128751964315
  O   5.16183185594168      4.06524115420113      0.13692519358891
  O   3.02143835855919      4.75384494104412     -0.18481228122331
  C   3.37215413529232      6.07951409375287     -0.03391605919148
  N   2.53537461645630      7.00203981504437     -0.10267354707236
  H   4.10223108478117     -3.88315013839047     -0.93439457938995
  H   4.02701541632903     -3.80729713038419      0.84577927188686
  H   6.99930187687552      0.07199961304424     -0.03069874210418
  H   2.40679598391278      2.61567586498112     -0.30656579123744
  H   4.42929482368328      6.23562368311865      0.14711566654093
  H   1.59437436658879      6.64902097727541     -0.27885113332539
