22
Coordinates from ORCA-job 17418optt
  Br  1.04030274414473     -0.02557958382679     -0.21874771222581
  C   2.91777725644801      0.01939274860892     -0.07099941252378
  C   3.65115204809376     -1.17396325875823     -0.11965944071240
  O   3.12722470696872     -2.39614061479830     -0.24865149399514
  C   4.20190613655153     -3.34253624038722     -0.23918548131339
  C   5.49403025098918     -2.53143968103535     -0.10596826339522
  O   6.60105249601254     -2.98313681964936     -0.07966162529827
  C   5.02544352429484     -1.12995327411118     -0.02723793848877
  C   5.69428334511476      0.08894715419489      0.12526851904581
  O   7.02482197178856      0.01730624713177      0.16704276891134
  C   7.84002407633328      1.07456317526823      0.62091049322436
  C   7.51601317293606      1.49541043439988      2.03699463555612
  O   6.70574502890296      0.93580234000719      2.71445386276526
  C   4.87094505441150      1.22561959504351      0.16476489769478
  N   3.53263870797288      1.15234322743828      0.06784252397043
  C   5.39076517293254      2.55826136967833      0.30855523541493
  N   5.83280809468572      3.61137873164192      0.42064667967033
  H   4.18929813083065     -3.90983621410621     -1.16928566355348
  H   4.07733438111759     -4.01780051184006      0.60703295228567
  H   7.81187703255469      1.94132970357214     -0.04132404904184
  H   8.85681750803585      0.67673428015991      0.60966285346090
  H   8.09573915887958      2.36229719136773      2.40154565854816
