30
Coordinates from ORCA-job 17427optt
  Br  2.53261306573859     -0.45917861682657      1.54138910616688
  C   2.95689811730092      1.26991834593020      0.97693588518460
  C   2.67484747220405      1.74887826207710     -0.23770982395502
  O   1.87175890271146      1.11520878382109     -1.13069902547138
  C   0.70984335136205      1.91648702434304     -1.45642021896278
  C   -0.04781776761086      2.43507249926202     -0.21658724066600
  O   -0.65603826256926      3.68937648193212     -0.44571123146263
  C   -0.10877884630345      4.90406707873817      0.06577047592212
  C   0.19127165780989      4.93555168281963      1.58903053456046
  N   1.48311331086659      5.61276000901379      1.77923639181790
  C   2.25656803986409      5.34731866516408      0.55456559519862
  C   1.20204967751869      5.41269726994026     -0.57054173718487
  C   2.89170675415509      3.97487290396599      0.66713658894067
  C   3.16082299677223      3.39405148993919      1.83941158451856
  O   3.46516716846128      2.06103330426056      1.94905338944842
  C   3.08543608864883      3.13743997448825     -0.52415015657467
  N   3.43416673396009      3.59330251419932     -1.65741765170555
  H   0.08734408858284      1.25718191969757     -2.05518072246479
  H   1.00697606515935      2.76682806541298     -2.07175643708235
  H   0.62362807855750      2.46618810405901      0.64032478821711
  H   -0.85076484786135      1.74102609064548      0.03548545990958
  H   -0.90626592503186      5.61036614451120     -0.15921462844347
  H   0.25047101994812      3.92120734842584      1.98538636370603
  H   -0.58583387406591      5.45231600267675      2.14868047579219
  H   1.33450568349257      6.61159962542281      1.85956768484807
  H   3.02392670715024      6.11086634590509      0.42447873455086
  H   1.46616038976671      4.88483909749271     -1.47973381120148
  H   1.07249505192560      6.46327971145198     -0.83501324479274
  H   3.12598143020426      3.88743422992677      2.79889022755753
  H   3.47274767128162      2.84100964130350     -2.34720735637186
