27
Coordinates from ORCA-job 17438optt
  Br  1.16081939820096     -0.30152156663109     -0.44074977930630
  C   3.03726047015265     -0.19670533426009     -0.29743114813984
  C   3.76249879590514     -1.34662550544599     -0.02175878190254
  O   3.11732263938589     -2.53317511479565      0.18541138132611
  C   3.35136879776014     -3.53151931613157     -0.79159872206720
  C   4.63569046175668     -4.30367646793674     -0.48168543401090
  O   5.79839657506043     -3.52487899636888     -0.59410416917931
  C   5.92886785641349     -2.51794472941478      0.39750861861390
  C   5.15040024008219     -1.26910814297839      0.07742925149527
  C   5.78559169934215     -0.05772552878100     -0.12589895383892
  C   5.05632164061181      1.10054327112030     -0.39890119090558
  N   5.74088740504581      2.30191555369823     -0.58752232887378
  C   5.29945026214237      3.38118284820623     -1.32305006932826
  N   5.90642303915479      4.47074946825780     -1.53018885947091
  C   3.66760428801705      1.02747187633650     -0.46218824874801
  C   4.75622975865270     -5.41735484108858     -1.43474037066286
  N   4.79570683624245     -6.27341991606017     -2.19316121110852
  H   3.42191853306821     -3.08777742445013     -1.78782013101130
  H   2.50096699881190     -4.21188893311492     -0.75719120200787
  H   4.55293946445977     -4.72069604171508      0.53047370854567
  H   6.99173560109291     -2.28815900979240      0.44723274885893
  H   5.61050441651910     -2.91471863097713      1.36868888427306
  H   6.86789158747267     -0.00944031242263     -0.08293929860353
  H   6.70414026323289      2.32370610139698     -0.28897533698252
  H   4.32001829986430      3.23315166309630     -1.77229990669130
  H   6.81090403247633      4.50861516012932     -1.05889385046947
  H   3.06614063907510      1.90899987012357     -0.62764559980403
