26
Coordinates from ORCA-job 17439optt
  Br  1.18551616968156      0.02037326832727     -0.30125044015041
  C   3.07128817647694      0.00640824538503     -0.14972331213558
  C   3.71537951315061     -1.19332894511075      0.13132740918735
  O   3.00099968864114     -2.32868568739277      0.34876225682101
  C   3.21392505288455     -3.37922342609563     -0.58811161908169
  C   4.46097208585639     -4.18396499265771     -0.25794684369144
  O   5.65749840312087     -3.46055603519260     -0.41088513111782
  C   5.86155855439913     -2.43490290572414      0.53786002827017
  C   5.10768030196399     -1.16920299433977      0.21662302542653
  C   5.76794966696757      0.02910809379417      0.02385213441138
  C   5.01561734308709      1.17381954148563     -0.23934884109520
  N   5.65147259175753      2.39306885220648     -0.43700901378281
  C   5.03968670586289      3.59507692288234     -0.70709907981665
  O   5.66856116672407      4.60415826215308     -0.88879975754251
  N   3.69349991150072      1.15046994476606     -0.32243872584160
  C   4.56268899932697     -5.38850573868251     -1.17621653115224
  O   3.62793997918358     -6.08949531025834     -1.43393558754387
  H   3.29161298740181     -2.96517216334320     -1.59740894857479
  H   2.34506627985678     -4.03184030004679     -0.53375918645273
  H   4.37318535019705     -4.55372940697929      0.77458848818087
  H   6.93125102600198     -2.23057831886940      0.54349208182574
  H   5.56775800913813     -2.78669991243845      1.53444487002595
  H   6.84846333060623      0.07879620977927      0.07596265564427
  H   6.66002047774717      2.42213765411458     -0.40053933471550
  H   3.94695424179598      3.52951815919664     -0.73549907353546
  H   5.57145398666918     -5.56604901695917     -1.59194152356298
