23
Coordinates from ORCA-job 17434optt
  Br  1.25907247437713     -0.08126918409891      0.86219242568219
  C   3.03473414459383     -0.05880725268262      0.29454520859710
  C   3.81896357140741     -1.15102991451697      0.20388014067335
  O   3.53188843149679     -2.44335320741582      0.47601962259080
  C   4.63689008789656     -3.23188132762516     -0.01794158487569
  C   5.83930550767177     -2.28890530552931     -0.15098959647055
  O   6.65986831336703     -2.28219504437227      1.00910224207097
  C   7.46724906054440     -3.34541927827861      1.13898580885849
  N   7.51262208329056     -4.34830068519296      0.28188506756538
  N   8.44024347377264     -5.13724218614166      0.80474958698524
  N   8.98668636991606     -4.72831718778637      1.92073283451576
  C   8.38690799251208     -3.57627730978943      2.17599237695551
  C   5.15956342228989     -0.93635262971957     -0.20716311660793
  N   5.71074018646706      0.17671632335377     -0.53687810681808
  C   4.92045692912989      1.32203994024570     -0.48557712425821
  O   5.29451537676857      2.42540925115751     -0.78878687186249
  N   3.59489310420525      1.13599786542752     -0.03976179433530
  H   4.35869794733342     -3.63990490179748     -0.99092022564647
  H   4.81647900551332     -4.03905317161487      0.68628272844777
  H   6.44275042857174     -2.49598160694330     -1.03393655856581
  H   8.70712920056923     -6.00198013995087      0.36572317108349
  H   8.62480092727216     -2.98053811722813      3.03864113524361
  H   3.04154196103310      1.97964507049981      0.01222263017087
