24
Coordinates from ORCA-job 17430optt
  Br  2.02350177969658     -1.02997558675936      0.89324841374764
  C   3.00186416038307      0.54244935324856      0.61581440227979
  C   2.90033475679660      1.33727864651692     -0.45187944134157
  O   2.08509067322308      1.27492304526929     -1.52329128914224
  C   0.64511445453077      1.29383984687411     -1.45705936545524
  C   -0.14620889303133      2.08351422563341     -0.40832580936866
  O   -0.35384817756094      3.50645737735275     -0.56604224481727
  C   0.57012882131583      4.19935981431287      0.14465254722330
  C   0.40719181893382      5.05380002200486      1.19578508002960
  S   1.93415353618497      5.24638679610483      1.99274150585318
  C   2.65333259713805      4.16241837343327      0.86959382255498
  N   1.83356993932929      3.81055895784470     -0.07368195299169
  C   3.70877857830327      3.12071704878179      0.95612355135704
  C   3.75652262273773      2.25269184260999      1.97078131605170
  O   3.79662590527700      0.90356571878632      1.68474998495107
  C   3.84928750500722      2.48386324117521     -0.39445424976031
  N   4.60671685208011      2.92752248601040     -1.29283072557347
  H   0.31131314023237      0.26017079531692     -1.32763541090646
  H   0.35172342474527      1.62819303337441     -2.45081141464165
  H   0.23593882899280      1.88566874987300      0.59685184331376
  H   -1.15209267777357      1.66502950105449     -0.47227877283559
  H   -0.48562617787890      5.53155145397887      1.56107922161339
  H   3.61601771973656      2.46100933906675      3.02222391292256
  H   4.50756881160031      2.37800591813560     -2.14835492506386
