24
Coordinates from ORCA-job 17441optt
  Br  1.27157395785123      0.16797531049717      0.40306070220351
  C   3.15460954880671      0.11290462423499      0.18437036229176
  C   3.76516863050499     -1.10873806075346     -0.06254727822915
  O   3.08328987458716     -2.27828438118869     -0.16165151060437
  C   3.52724015158777     -3.31418255556217      0.70271641190935
  C   4.82319644905699     -4.05168677759567      0.33930176366707
  O   5.09592802634218     -5.03427526291240      0.97338941421667
  C   5.71943034243749     -3.53220838457592     -0.77127351935705
  C   6.09413657865098     -2.10401131520710     -0.53197322910180
  C   7.30915100637070     -1.48111537363385     -0.56419916599206
  N   7.15587620228849     -0.13486107428584     -0.31722521992737
  C   5.83135123115826      0.13047324725974     -0.11563810186272
  C   5.14552754509902     -1.08253565586465     -0.23481552066038
  C   5.12262679330491      1.30759806629790      0.14599380811137
  N   3.80354662895839      1.26370335618351      0.27816676093349
  C   5.82008779534542      2.55220715956877      0.26842382545157
  C   6.47465166177403      3.55309804872368      0.35542821292873
  H   2.73510914930534     -4.06080533195390      0.71442955500084
  H   3.64773912680054     -2.93268491570989      1.72143616180659
  H   5.16113885186568     -3.61086201417357     -1.71073091138801
  H   6.58856774019559     -4.18433482519307     -0.82657040411961
  H   8.28678475021167     -1.89436859436755     -0.75304198383445
  H   7.88953533315396      0.55299555940641     -0.29401991354900
  H   7.02673262434240      4.45899915080556      0.43896978010502
