28
Coordinates from ORCA-job 17449optt
  Br  0.65456431229676     -0.38935054936268      1.34521163743980
  C   2.18860882259222      0.38606309890631      0.61794201379956
  C   3.05940110769598      1.13418460632179      1.29594719387376
  O   2.79218486312992      1.67057743312819      2.51264497839646
  C   1.79809973065728      2.71246287827637      2.42853609852399
  C   1.75726832616050      3.50668874368832      1.12228147774850
  O   1.03467889964637      2.77682811264358      0.14227225776499
  C   0.72215373235332      3.40901378445633     -1.07918855560959
  C   1.78875385617584      3.33063094346552     -2.17756313981869
  C   2.26973640105470      1.90847526655071     -2.53769427082485
  C   2.93097902729767      1.34007500047796     -1.32277497467749
  O   2.23456055629194      0.31541038436330     -0.73797956633499
  N   3.93871327828615      1.89144929616371     -0.79900410867120
  C   4.24395803302462      1.61023058644981      0.54749886524893
  N   5.34457140975469      1.86629186655186      1.11021617371156
  C   -0.58272847113496      2.76712833731766     -1.53632723363423
  O   -0.98319452556725      2.82036475043869     -2.66251917132743
  H   2.03403860378176      3.39075768080154      3.24693724112696
  H   0.80933210313455      2.27801181676540      2.59620105477861
  H   2.76706325966690      3.74414631828413      0.77023302996004
  H   1.23548827004984      4.44875694794222      1.32718321645441
  H   0.49422383716009      4.47098113670523     -0.90026323841760
  H   2.65777753876939      3.92171069209605     -1.88646801404548
  H   1.35002169976767      3.78727641837833     -3.06578555361010
  H   2.99234968579908      1.98518202485007     -3.34897606429822
  H   1.44538116407000      1.27345705652550     -2.85849357863312
  H   5.99913558736725      2.24406844525945      0.42491502814672
  H   -1.13912110928230      2.24812692255466     -0.73398279707131
