30
Coordinates from ORCA-job 17445optt
  Br  1.03658620725638     -0.13754646621809     -0.50473533539122
  C   2.91402453301744     -0.14674976265150     -0.28518595677219
  C   3.56214822744051     -1.35105787089157     -0.02173959726035
  O   2.81569047061668     -2.47976751847931      0.11281364810767
  C   3.09828680884666     -3.53379228290613     -0.80161402436316
  C   4.25256226184763     -4.39441336109817     -0.34322586202546
  O   5.49551785655803     -3.72596553611746     -0.39308438607991
  C   5.67474412029012     -2.65516513311026      0.51503624238078
  C   5.36367136334677     -3.02908808028008      1.90626591414407
  C   5.13657511700770     -3.31815744920629      3.04559835058254
  C   4.95325667013211     -1.37271987444591      0.13373359676034
  C   5.65712132816863     -0.18463381297009     -0.00855706119194
  C   7.14298225871662      0.06192246041485      0.11945614241888
  C   7.31872588488069      1.45036386214568     -0.52348769620016
  C   5.97043856147070      2.16204080310092     -0.31932158374798
  C   4.99423357039110      1.01396621298623     -0.26416135722187
  C   3.61947097198607      1.04348718652225     -0.39633757618969
  H   3.29871205203212     -3.11576360343430     -1.79239014832835
  H   2.19073940898849     -4.13669215716446     -0.84674827863870
  H   4.35197094523912     -5.24890845428761     -1.01359156542872
  H   4.05690037368010     -4.76170180369580      0.66899676355667
  H   6.74480155182422     -2.45175032103480      0.47173557576684
  H   4.92421690590395     -3.57104890464834      4.05696094525287
  H   7.75117177035363     -0.69806198044856     -0.37179531522498
  H   7.43047507724771      0.07550356971191      1.17571175569274
  H   7.49660398542507      1.32436175166237     -1.59270222876291
  H   8.15943802357086      2.00334313631796     -0.10800735239681
  H   5.74329469124210      2.87888950807162     -1.10833187421166
  H   5.95514606638171      2.70672004776369      0.62966343305190
  H   3.08949293613699      1.96538583439127     -0.59695516827922
