26
Coordinates from ORCA-job 17451optt
  Br  2.37846198687736     -0.37639535371188      1.00530823781609
  C   2.94995075441680     -2.16293839916903      0.75401763952493
  C   3.85301204248282     -2.68142767672027      1.63374966557980
  O   4.87069074378325     -1.82949339793143      2.08205287245765
  C   5.56299642749206     -1.63280358201098      0.89090334425070
  C   5.09818788280507     -1.93339994651988     -0.34160158626944
  O   5.94338454829297     -1.84448950110373     -1.39927914085033
  C   6.22108505796223     -3.09253299786608     -2.06264860585507
  C   6.65283635183655     -4.21522794828256     -1.11176834329618
  C   5.54693481293942     -5.25594718508434     -0.83682249187637
  C   5.94941974524416     -6.14353797631389      0.31312926920024
  O   6.56016288772569     -7.16875223454051      0.17145345688287
  N   5.71522619736983     -5.71128021069756      1.64099206413598
  C   5.09235632431293     -4.59054465946679      2.10414598252809
  N   4.19437161148069     -3.97755263074899      1.43978947469060
  C   3.63866643584469     -2.31459952956846     -0.60564627478902
  O   3.19619423531359     -2.52224424212830     -1.68984719625969
  H   6.57290152200642     -1.28030680225683      1.04649933033200
  H   7.02708054353559     -2.84118497141451     -2.74810034864268
  H   5.34481342576331     -3.38413167463200     -2.64529660545317
  H   6.99747763779388     -3.76246784680464     -0.17809559987664
  H   7.51071677445706     -4.73804274215264     -1.53578119333669
  H   5.44777925405570     -5.90999249659014     -1.70199459112116
  H   4.59004712038413     -4.77998734023570     -0.65008280771606
  H   6.22694370527298     -6.26947130298024      2.31103465152695
  H   5.42430197055076     -4.26724735106858      3.09188879641661
