26
Coordinates from ORCA-job 17453optt
  Br  2.01192393642971     -1.57771591032189      1.52261857555004
  C   2.80174781785281     -0.25140926661050      0.44690801367431
  C   2.46444650022448      1.03973460563169      0.60706116173162
  O   1.54033584855496      1.40245308306461      1.55068231378318
  C   0.28024214131562      1.82422830790713      1.01851832489315
  C   0.05497201154695      3.30261512786470      1.35955963069660
  O   0.19821977411710      3.67429432406181      2.49405385425042
  C   -0.24726544753163      4.30120828484960      0.25342916764305
  C   0.99981602472802      5.17061952612574     -0.02443448675211
  C   2.09392181434485      4.35907041049103     -0.68523298793257
  N   2.48922830796214      4.45717158803004     -1.88258957081377
  N   2.58812459536067      3.36687266874052      0.15826590360158
  C   3.02747427984339      2.10126704138948     -0.21960924964404
  C   3.83507749579261      1.89752739024068     -1.28751633005214
  C   4.30782047314362      0.60811961192874     -1.73390637842648
  O   4.99786138381916      0.40784731166549     -2.69880611204571
  S   3.90257530447431     -0.84534670854622     -0.73537527584376
  H   -0.49952577711274      1.23278737478318      1.50350916253140
  H   0.24430740770234      1.65079555740961     -0.05839840490822
  H   -1.05088933581167      4.94709996283211      0.60728739985567
  H   -0.56811128368532      3.80290244386443     -0.66233998596588
  H   0.73518790541398      6.00337011839066     -0.67353117967550
  H   1.35173635925582      5.58315482826515      0.92488831200542
  H   1.97984653839117      5.18669967106387     -2.37273884860695
  H   2.31340153193108      3.42949217307231      1.12708266087652
  H   4.17352439193653      2.74114047380598     -1.87038567042584
