25
Coordinates from ORCA-job 17464optt
  Br  1.22739603186855     -0.01619049098105     -0.20088919562027
  C   3.10756882773773      0.06147893265953     -0.08150461524984
  C   3.84300933961756     -1.11772927106391     -0.07160322593107
  O   3.34429979923221     -2.36638069894664     -0.12776984691787
  C   4.45664420789227     -3.26138129161141     -0.35837346918787
  C   4.40905136044909     -3.63053510163402     -1.82989636480161
  O   5.48586065889333     -4.50108115059825     -2.08703319349767
  C   5.49423962487455     -4.95776691252596     -3.41237257825806
  C   6.68160401051907     -5.79148659134338     -3.62232492912420
  N   7.60254049486358     -6.44290703174858     -3.81351715525531
  C   5.73101574801363     -2.48236155343426      0.02027902247284
  C   5.22522513326311     -1.06585915632637      0.00014954865460
  C   5.84853691502384      0.16280939910544      0.06325945177413
  C   5.02261412735601      1.28738414382179      0.04983420992898
  N   3.69219982012304      1.23379457657374     -0.02013629125842
  C   5.61912671791170      2.60031396331029      0.11026045426416
  N   6.13824411028122      3.62125068280946      0.15922488680970
  H   4.30021863813613     -4.14453887618399      0.25664570210901
  H   4.49089774888031     -2.71967445618253     -2.43966123207051
  H   3.45029219069781     -4.11045795997122     -2.05386652547328
  H   5.52929551578876     -4.12061716059973     -4.11926541452311
  H   4.60227638965818     -5.55452204999521     -3.63437545999330
  H   6.53637124332261     -2.67122236997363     -0.68841489438168
  H   6.08779231156192     -2.74909002567723      1.01609630330635
  H   6.92267903403373      0.27177045051714      0.12325481222430
