24
Coordinates from ORCA-job 17465optt
  Br  6.44030037952965      2.19271223037554     -0.15275915748678
  C   6.99491852336523      2.62628800439783      1.58908041147915
  C   6.22671725927321      2.35587385137482      2.66351898289867
  O   5.22086191780810      1.41527776837502      2.67705051562762
  C   5.76672649410291      0.24733194016244      3.25822521854338
  C   6.83370307406518     -0.28752173891473      2.68675081598246
  O   7.68769359472676     -1.21113565546444      3.24240130828609
  C   8.97157234012448     -0.69714846490109      3.31076509963235
  C   9.15809303519184      0.59139615882098      3.59283463132324
  N   10.35541646185011      1.31032388928571      3.44908115884606
  C   10.24637196959318      2.53977714015644      3.13353297027204
  C   8.86849378555675      3.10625516518222      2.87396501127288
  N   8.35408441536964      2.86394295387024      1.73415354244092
  C   8.00707559507285      3.53057387826271      4.01371377993976
  N   8.33856644644181      4.32329120515853      4.93899188021915
  C   6.62498995512450      2.91842117860059      3.96805564286654
  N   5.91613168850749      2.88789802977352      5.01708079936048
  H   5.33107740299793     -0.04904465926305      4.20201230358967
  H   7.18443133746740      0.09900284477477      1.73642695559313
  H   9.74475736173276     -1.41096716019457      3.06232340672970
  H   8.27437943423483      1.12872035851389      3.90995381512937
  H   11.14499012618367      3.13688220502390      3.01115661632851
  H   9.30944008461527      4.62716092685689      4.83761346244866
  H   5.00620731706435      2.46668794977183      4.81407082867689
