24
Coordinates from ORCA-job 17462optt
  Br  1.24973186623223      0.00008773294666     -0.39989613284790
  C   3.10125931007757     -0.02940049657618     -0.18816482576679
  C   3.75652786095548     -1.19791167475370      0.01037926289506
  O   3.06873495848073     -2.35589853858154      0.10443524133259
  C   3.35803084862635     -3.34477780627550     -0.88937507708238
  C   4.52324654998914     -4.21912129635134     -0.49269281623896
  O   5.76014329551511     -3.52496873596886     -0.47933170573289
  C   5.91024703282780     -2.52179793253257      0.49210491664070
  C   5.52238336613129     -2.99663476228995      1.84308954317519
  N   5.23673359428504     -3.36030614845096      2.89037692076325
  C   5.19125009536919     -1.23140906068354      0.17271098378806
  C   5.85092675195140     -0.05341412429375      0.08197863449344
  N   5.19078847721228      1.12182193406090     -0.13620581074131
  C   3.80223556989827      1.25438661559175     -0.26130182732364
  N   3.19529039247062      2.35343794420419     -0.44224403519263
  C   7.27417005141967      0.05499993707805      0.22115221299441
  N   8.41136921185417      0.16503553194481      0.32184669519258
  H   3.54129410881310     -2.85591376383115     -1.84970529724681
  H   2.45623802600695     -3.95112852383192     -0.96564244289440
  H   4.64783693194631     -5.01350001546758     -1.22789012760828
  H   4.33227265054141     -4.67087721295653      0.48566741340895
  H   6.98176623050202     -2.31744650148693      0.53236572310502
  H   5.73705803957801      1.96796647163439     -0.20084138808211
  H   3.82446477931582      3.15177042687125     -0.48081606103114
