24
Coordinates from ORCA-job 17467optt
  Br  1.13883975382111      0.03429133347822      0.12683196417517
  C   3.01374827635061      0.00334884106681     -0.00160800533430
  C   3.69138366341116     -1.21037558815003      0.00843646170179
  O   2.98620387859260     -2.37152178103443      0.10733018644051
  C   3.58854570277759     -3.50623468474467     -0.50094518063962
  C   2.71535101157516     -4.72678025002810     -0.24026355408338
  O   2.60779580807013     -5.58317908683920     -1.06322889636069
  C   2.05539094318987     -4.76221005078554      1.12896204875263
  C   1.29348260684125     -5.98058069913058      1.36073292032989
  N   0.68279205340726     -6.92583810879713      1.56755631780868
  C   4.99157824295136     -3.71541415162376      0.08264288708548
  O   5.34600855686639     -4.77495306255096      0.51515615780556
  C   5.85889988221492     -2.48216308758355      0.06428932455433
  C   5.08429832039865     -1.19523461371513     -0.04501047854868
  N   5.78130608725614     -0.07036579709340     -0.15091053021787
  C   5.12473529323407      1.08175494874960     -0.17934916887600
  C   3.74201590421162      1.17408137358192     -0.09634036509777
  H   3.66795795647766     -3.36209965891450     -1.58430973402939
  H   1.40639298706024     -3.88929080362634      1.22762715275174
  H   2.83550919769629     -4.66128327369917      1.88859602885984
  H   6.54243925414932     -2.56637235660321     -0.78665051793635
  H   6.48197434574229     -2.47793170569356      0.95994618296772
  H   5.72521028441035      1.97980050757897     -0.26130916598952
  H   3.24313998929391      2.13255175615777     -0.11018203611976
