23
Coordinates from ORCA-job 17479optt
  Br  1.65506811594376     -0.08974423663438     -0.40434181973751
  C   3.50421080558392     -0.01799390854423     -0.16960298069425
  C   4.21556396986872     -1.16340437487076     -0.11067844181404
  O   3.78231595176322     -2.43461330117485     -0.20223879980454
  C   4.89161450451218     -3.24708320393699     -0.10636309477716
  C   4.70907403806987     -4.70030917520590     -0.17670149605389
  O   5.63349195651440     -5.46132414104644     -0.08659666125512
  C   5.99704092840889     -2.50446740573301      0.04472398043161
  N   5.58462742614806     -1.18146869507577      0.04703647295605
  C   6.28581531704137     -0.02205179548010      0.18863771158651
  C   5.64921719018272      1.17257441053935      0.16475532670047
  C   6.39868581030216      2.44783967308174      0.35656570703449
  N   7.62027076938571      2.56783232195190      0.72377114261137
  C   5.59596567929306      3.62273474481287      0.08807403245624
  C   4.27547252539109      3.52087711196950     -0.16627956044810
  N   3.54847151166389      2.35299283664951     -0.22807905667247
  C   4.20196591124182      1.24306998434877     -0.08232221476097
  H   3.66895808672094     -5.03610093445328     -0.31734303762930
  H   7.02501022224716     -2.80333402036195      0.15177310328307
  H   7.35339216792014     -0.13630561635522      0.31382117674849
  H   8.06378965675624      1.67516531724384      0.92808549718189
  H   6.08730910336616      4.58371577438320      0.14234167289305
  H   3.68966835167443      4.41639863389220     -0.33703866023591
