27
Coordinates from ORCA-job 17473optt
  Br  3.91592520077636      1.17894113534229     -3.12672902755580
  C   3.65270614466473      0.21013836546367     -1.55107723848609
  C   2.79434636582853      0.63031365585895     -0.58528681741267
  O   2.13680804054346      1.79152006295619     -0.66291066226438
  C   1.27186059088099      2.11782504180875      0.44555763061917
  C   1.99751038479922      2.25164814252939      1.81511815332300
  O   1.58512736883412      1.26741315153111      2.73726789750757
  C   2.53528306767088      0.37054773356608      3.26839602148335
  C   2.27409365590932     -1.09745714110678      2.89858073313247
  O   3.23020540016049     -1.68279417574548      1.98244533632430
  C   3.30270459594435     -1.08227825752340      0.80342164683876
  N   4.20338543387857     -1.57858278974777     -0.06424186039464
  C   4.42347283688146     -1.00547911241136     -1.34453930556798
  N   5.23360868895929     -1.48649050876196     -2.19635674831836
  N   2.56541396863652     -0.06554178118895      0.55756682392394
  C   0.61677722396675      3.36941959445360      0.06932570743268
  C   0.07090142208221      4.40088611609800     -0.19079017601351
  H   0.52240887969071      1.33225189650752      0.56035637100546
  H   1.74262542416022      3.22289358514791      2.24062813852195
  H   3.07656062593649      2.22356241797652      1.64525206719641
  H   2.46861610652504      0.45425713399770      4.35601156537722
  H   3.55435344856389      0.64448047905575      2.97946334547392
  H   1.27427073813318     -1.18350233386068      2.47314397576095
  H   2.35946419278172     -1.73588267596303      3.77367024002414
  H   4.75118389472555     -2.38140403755014      0.20858734035680
  H   5.69341605255237     -2.33118615184890     -1.86675828876189
  H   -0.41702975348646      5.31550045341503     -0.43010286952679
