23
Coordinates from ORCA-job 17477optt
  Br  2.53542809136382     -1.77080375115102     -1.88308878576938
  C   2.89245904624928     -0.33359303259546     -0.75600281493230
  C   2.00794591435206      0.67540800252980     -0.55543176770956
  O   0.82962729113302      0.74754529447862     -1.16077961196773
  C   0.07280138236292      1.93136329566142     -0.87490912457987
  C   0.93357970989281      3.18205393022416     -1.11724717130463
  O   1.50699731500816      3.29772359186400     -2.16657886247687
  C   1.08657507963014      4.23535638037010     -0.03228080922624
  C   2.56969945757551      4.51380586641130      0.26210802940676
  O   2.99410421461545      4.04153916535769      1.55404733520678
  C   3.71904682369898      2.93760869208013      1.75872241389215
  O   4.44471559077418      2.81215129252955      2.69122690968279
  C   3.44447475607895      1.77706581340778      0.81817513780100
  O   4.39542790929506      0.88137318430457      0.68830495444381
  C   4.17981278983131     -0.29390708864871     -0.08971522241111
  O   5.05681183823366     -1.08810186628276     -0.12525069416664
  N   2.29279176462407      1.71467129223746      0.28409661270963
  H   -0.29807507496521      1.89262828253651      0.14843631462188
  H   -0.75572570109941      1.91110867517107     -1.57940534276554
  H   0.57983868584843      3.95471323087370      0.88963050929099
  H   0.62662072984393      5.14986531228860     -0.41261478640515
  H   3.19676236838865      4.09849209847239     -0.52744254299583
  H   2.75328001726422      5.58393233787905      0.31199931965507
