26
Coordinates from ORCA-job 17470optt
  Br  1.14066829978198      0.56285162922650     -0.08208839848320
  C   2.98454059949416      0.24237783829740      0.02288270427056
  C   3.51104620865807     -0.98358188359556     -0.19940159179106
  O   2.77562733072078     -2.06656318029848     -0.57775858795557
  C   2.08268345901411     -2.75163064599863      0.44617536118296
  C   2.94797694498646     -3.40850107903903      1.51027211560253
  O   2.39435281540149     -3.96575901264453      2.42041984903818
  C   4.46668715414023     -3.36160000941877      1.46145808098650
  C   5.16383280715215     -3.49531843370797      0.10087258288604
  O   5.54403804041402     -2.25626251534018     -0.51616184323898
  C   4.94994172488093     -1.08641988762966     -0.18828311463582
  C   5.72936236290717     -0.00950621772120      0.06097263438777
  C   5.16308508876680      1.29662714828609      0.32573250996814
  N   5.75036284793127      2.39999660541843      0.58553985875572
  N   3.76370243080242      1.31757681778929      0.29522348421639
  C   4.43667251440058     -4.37284480067774     -0.82230974823734
  C   3.86216457384008     -5.14930013766833     -1.52788881485068
  H   1.51923955478386     -3.54406824814575     -0.04574371107859
  H   1.37646677903348     -2.09475294585337      0.96058283933501
  H   4.79267099220237     -4.18130283107479      2.10030912264438
  H   4.80021722223104     -2.43601488974773      1.94189263498987
  H   6.12759401052891     -3.97113987742718      0.29112050038156
  H   6.80462731138330     -0.11555420827952      0.04910702621662
  H   6.75801890751544      2.28386709314541      0.58481786765472
  H   3.33985949226461      2.21669076992104      0.47541538967970
  H   3.35256052676424     -5.82786709781570     -2.17015875192541
