24
Coordinates from ORCA-job 17486optt
  Br  1.01831182341678     -0.02333039356363     -0.71497614498442
  C   2.78912728870272     -0.14438456816281     -0.12907348494557
  C   3.40348824263616     -1.33882996189617      0.03217896851044
  O   2.72001290969586     -2.49748566699405     -0.19647727926264
  C   3.27529806092960     -3.35947039348756     -1.17192692622942
  C   4.36419539379564     -4.22537483362988     -0.55993256924050
  O   4.80168811625275     -5.18725771924482     -1.12255632167641
  C   4.86086943988890     -3.75374893178064      0.79994489471234
  N   5.48715520071861     -2.43704282075058      0.66347939963723
  C   6.85871625686414     -2.33109559557118      1.13128377029643
  C   6.92784512169975     -2.37571123727195      2.60189234676659
  N   6.94705605941071     -2.45304563062997      3.74420184487825
  C   4.77432884790536     -1.27921596182547      0.49473990504819
  N   5.39517318681013     -0.15507999053904      0.72176050954553
  C   4.78679178182885      1.05728063678885      0.54083140087806
  O   5.30928467852303      2.12982233456546      0.70726629452003
  N   3.43507745504882      1.00948819418534      0.13527224567615
  H   3.68118152511682     -2.79948193216592     -2.02042837920854
  H   2.47539598339998     -4.00559566095067     -1.53080971316693
  H   5.61361095377943     -4.45688053497309      1.14580726431746
  H   4.04441327125464     -3.73166014603572      1.52403735134181
  H   7.28474616361378     -1.39351619506233      0.78426253773886
  H   7.43491139965271     -3.16409888433227      0.72912300035369
  H   2.97032083905473      1.89871589332811      0.02209908449334
