26
Coordinates from ORCA-job 17480optt
  Br  0.94037818573153      0.30492956382865      0.57994375330194
  C   2.78949287202086      0.08817280303344      0.37568423702525
  C   3.60415124523081      1.15019998932215      0.19076383144510
  O   3.28779050902977      2.45286944662466      0.11575931606474
  C   4.46164243204215      3.14302390589132     -0.09411027122341
  C   4.40529623858669      4.60200718457375     -0.22772964060898
  O   5.38721570212918      5.26142983697146     -0.43394047174735
  C   5.49035482539231      2.28742756855480     -0.14278358968893
  N   4.96760635226983      1.01785581857739      0.03930234857808
  C   5.65187390432419     -0.21755838038405      0.07499004584625
  N   6.91900846858492     -0.34750927626933     -0.03727430265349
  C   4.76200172457564     -1.35047389577683      0.25019774662355
  C   5.41346469299442     -2.70957995274251      0.24978029101075
  N   6.10255188231111     -3.02161365453862     -0.98932140961770
  C   5.37458708053861     -3.29872746984458     -2.11985182382787
  N   5.73393483361273     -3.22796960444410     -3.33363784460246
  C   3.42174201887813     -1.18433732821773      0.39140184423033
  H   3.40054056986212      5.04399278816014     -0.12455188998366
  H   6.53450068877778      2.49155866076039     -0.29674575159125
  H   7.42076813236207      0.52773362092306     -0.14139096090621
  H   4.65647421539953     -3.47372316486300      0.43212564856156
  H   6.14489676196391     -2.76407633855936      1.05703167884545
  H   6.94320624835872     -2.47449659320647     -1.12398000369984
  H   4.36754405830040     -3.65952125583799     -1.89848895704385
  H   6.68786207137734     -2.87475475225791     -3.42063564711967
  H   2.79211428534517     -2.05685952027870      0.52246182278168
