24
Coordinates from ORCA-job 17484optt
  Br  1.11167132024028      0.65773295646662     -0.83263528745507
  C   2.90191989715300      0.43070656183278     -0.36829823617843
  C   3.72726915553655      1.46432036305797     -0.14172505443929
  O   3.43242687424864      2.78368497263034     -0.20020697211832
  C   4.59558400799703      3.46227112373231      0.11182214092921
  C   4.48709425521964      4.93903015294666      0.14216123011261
  O   4.24594687906241      5.39967072629699     -1.17642206933332
  C   4.05563195179531      6.73375477406273     -1.32907006643751
  N   4.11794053439952      7.64542647351924     -0.46103006789311
  C   3.74980285981533      7.03884220023081     -2.70717254616602
  C   3.49518337811991      7.28460743243088     -3.84901614031589
  C   5.62484826269508      2.64718813902106      0.36914223821226
  C   5.11338762205252      1.29891571240034      0.21746814957002
  C   5.58657585184862      0.05021148750691      0.31712264546502
  O   4.79053462760387     -1.00942713140352      0.09505192765631
  C   3.43669569526727     -0.92086545184112     -0.23347030438469
  N   2.75816336772739     -1.96820149062326     -0.39506033159827
  H   5.41992571550275      5.35362350254841      0.53335307880908
  H   3.65792790253820      5.23535692531483      0.79390635062075
  H   4.34177258207474      7.30849411095651      0.47125977543295
  H   3.26310617735881      7.51267844709140     -4.86226717893470
  H   6.62434579702530      2.95019402396167      0.63028764039056
  H   6.59712235143390     -0.23522876882575      0.56852296523851
  H   3.32212293328388     -2.80198724331487     -0.25272388718266
