21
Coordinates from ORCA-job 17493optt
  Br  2.32218492326701     -1.78063619945107     -1.55311981187563
  C   2.61859181076601     -0.26385216762946     -0.50167269117324
  C   1.97793310348798      0.90415016728968     -0.70054912378671
  O   0.95787372008078      1.05339360876563     -1.59005190118887
  C   0.05780576735744      2.01661214943644     -1.13667473304884
  C   0.09367203837545      3.24610719788508     -1.60309797203418
  O   -0.49002276444340      4.30948778996350     -0.91376229107945
  C   0.31200845341747      4.70400421944979      0.12622704992040
  N   0.77139163658201      3.87270175166550      0.93708047269193
  C   1.79731850658918      4.03821471345353      1.83917508523770
  N   2.77898926690154      3.21878632374452      1.95596507255738
  C   2.78155672024817      2.08970736477003      1.15006376138919
  N   2.25463281282279      2.06852772902772     -0.00829122852303
  C   3.46810284260676      0.84120985279479      1.66569105239362
  O   3.99567258493951      0.76798114951504      2.72978861659938
  C   3.49625413007215     -0.36821825043016      0.67042559551384
  O   4.14958238602149     -1.33093141073640      0.95799659617130
  H   -0.54042603502908      1.72808797143821     -0.28208783040016
  H   0.71324850197279      3.53900294556591     -2.44139759692082
  H   0.52086539958065      5.77469209548483      0.09645613285515
  H   1.75276419438327      4.87397099799683      2.53783574470105
