24
Coordinates from ORCA-job 17496optt
  Br  0.97341930282890     -0.99445570678020     -0.53930310335713
  C   2.78626791765619     -0.64537197249513     -0.25835425799907
  C   3.65267024635456     -1.64668876430879     -0.03381782574043
  O   3.20883993569883     -2.92011399815370      0.00629647587020
  C   4.11997650831044     -3.93421601049860      0.17465217279405
  C   3.49842619085663     -5.28410217948518      0.12389337486806
  O   2.97867933195096     -5.57773628579816     -1.16292461584082
  C   1.69313461404932     -5.20619056025322     -1.41158228085987
  N   1.10158768605671     -5.41663637385366     -2.49225292191858
  C   5.40665280366583     -3.68955250889602      0.35490319992905
  O   5.92330463894132     -2.42871239617957      0.40001208992128
  C   5.08642815721343     -1.38121684561464      0.18308876596294
  C   5.58220471046112     -0.14256664385548      0.17621788497568
  C   4.72346351821604      1.01234933228399     -0.05416959878511
  N   5.10797142631734      2.22021747242843     -0.07762075450262
  C   3.23036261187281      0.76670680820577     -0.29031463310800
  O   2.47304681899186      1.67386937228356     -0.48738994368814
  H   2.70604599539873     -5.35907551336488      0.87461292789897
  H   4.25414629435871     -6.03685228767808      0.33962292265852
  H   1.19714267682144     -4.70190210963416     -0.58229963285278
  H   1.70984458096819     -5.88966454375832     -3.16160521192859
  H   6.15053945205793     -4.45835017727045      0.48321179172180
  H   6.64140238081510      0.00821908536541      0.34016525574986
  H   6.11344220013755      2.28704280731111      0.08895791823074
