25
Coordinates from ORCA-job 17500optt
  Br  1.02781014219810     -0.76702050986433      1.78071700454249
  C   2.51843970166753      0.16175717168757      1.13011379989367
  C   3.20229534291135      1.07215262060050      1.83713843256670
  O   2.66908361018108      1.68607975639023      2.93044462171770
  C   1.62504814304216      2.58151327185860      2.50858525703354
  C   1.97628291860000      3.26881984398047      1.16412096302251
  O   2.77232207934557      4.16117977674670      1.12387208620515
  C   1.24862270536858      2.79857481439096     -0.10766164445828
  N   1.80334697116349      3.31404968380782     -1.33031319192205
  C   2.53291724892678      2.71306621329302     -2.32202114053621
  O   2.86705038492335      3.33953458293809     -3.30071291283897
  C   2.94150270467654      1.23081176856896     -2.20484236227750
  C   3.46555389680760      0.91587884906661     -0.84166784141876
  O   2.72398874960745     -0.03563150878289     -0.18589589488551
  C   4.40656359383938      1.61488310596857     -0.20412789391949
  C   4.46444819739961      1.61730932328448      1.26284387659314
  O   5.32216903789695      2.14184348183070      1.92461003278370
  H   1.54362669655612      3.34512333689856      3.27882760355320
  H   0.68349652467707      2.03145951120461      2.42346952134944
  H   0.21173447450023      3.14346071188431     -0.00342125914790
  H   1.17438389821135      1.71353446017428     -0.14025164557502
  H   1.71082269619656      4.30784292534151     -1.48578219608489
  H   3.68934719780698      1.08761806831257     -2.98190425291348
  H   2.08681627887816      0.59144976954104     -2.42911319527671
  H   4.98632680461799      2.36070897087701     -0.73302776800647
