27
Coordinates from ORCA-job 17510optt
  Br  1.24783888683554     -1.83360889837795     -0.44997933253877
  C   2.27799191368860     -0.32736594354634      0.01834092819037
  C   2.32290461738282      0.75301300998246     -0.77968747712372
  O   1.59115423405825      0.82167015747980     -1.92054493968127
  C   0.30197686863485      1.41804581338590     -1.75764896419761
  C   0.31674196078391      2.83826705289226     -1.22858050791748
  O   0.66596836634777      2.81595210434260      0.14292851410643
  C   0.65057683944229      4.06241060845045      0.80397384115188
  O   1.75158889663666      4.20262972440590      1.63055789180789
  C   2.96979532832767      4.54434086632881      0.98223536872501
  C   4.06361422309099      3.51158856990922      1.25439853884753
  C   3.64092662370711      2.12010582308172      0.88283658627726
  C   3.64909008036252      1.12004061115202      1.77483639049553
  S   3.06591967376180     -0.48177476986416      1.54316464503804
  C   3.16454620275301      1.93484922206574     -0.49355137316812
  O   3.38010237341446      2.76000146777264     -1.36214068290942
  H   -0.30438863788366      0.79210893919144     -1.09509919750854
  H   -0.13484531860628      1.41085104306504     -2.75482275227221
  H   -0.69152487876351      3.25006825522738     -1.36198854386124
  H   1.02953667807005      3.44649392364375     -1.79534631283212
  H   0.61274210197163      4.86834189165947      0.05874200887837
  H   -0.22713182262934      4.10821541414420      1.45112053123221
  H   3.29705618697384      5.51262669319212      1.36790013040883
  H   2.81347245717929      4.62977264171109     -0.09352077334357
  H   4.33830689842454      3.53669778480521      2.30988731815051
  H   4.93735989449279      3.80621482592361      0.66680251948107
  H   4.03367935154239      1.27044316797557      2.77718564456313
