26
Coordinates from ORCA-job 17512optt
  Br  2.75580990070733     -0.18141329016669      2.51977061749251
  C   2.42178653709035      1.43134088199799      1.55871764109877
  C   3.53414946061633      2.00427486376575      1.00565969613827
  O   3.52810873609096      3.20276509666624      0.38787945582962
  C   2.21235414909381      3.71455082887454      0.22928510685419
  C   1.93016678876481      5.11953764390183     -0.27576359048224
  O   0.58931463402184      4.93068360432363     -0.78916845425996
  C   -0.32522095418010      4.52488374314694      0.13930368800681
  O   -0.35653992190245      4.96688496090134      1.24751909318202
  C   -1.23702385656490      3.41952247994124     -0.35880566332697
  C   -0.51133124805386      2.09395198481794     -0.62005806644623
  O   0.17010624000341      1.66614848651397      0.56948375828720
  C   1.42912135500954      1.21965978700142      0.47168849245716
  N   1.89930349267446      0.66503743167550     -0.58209332549509
  N   3.26397854150919      0.45457778162682     -0.65408056679191
  C   4.29440202030925      0.98008750864355      0.16379871411261
  O   5.44033968763975      0.69478071855948      0.02805501944225
  H   1.67754482018906      3.57077819323395      1.17125355012513
  H   1.76485427278012      3.10223266756885     -0.54317420521576
  H   2.53992529587494      5.40988306786488     -1.12665053603024
  H   1.94549035827455      5.88490351672387      0.49615055386118
  H   -2.01353231692903      3.28429361933443      0.39134729784266
  H   -1.69734076299157      3.72434181618565     -1.30115999844663
  H   -1.23887401520273      1.33098614460906     -0.89591170733627
  H   0.20621238598894      2.18445113020423     -1.43540302000273
  H   3.54489439918598     -0.20014466791645     -1.36764355089633
