27
Coordinates from ORCA-job 17515optt
  Br  1.84415400957513      0.83913907539087     -2.33383412968307
  C   2.55539060210024      0.01094376582062     -0.79311449092341
  C   3.04360060369880     -1.28733637678557     -0.87947416240417
  O   2.79667555880063     -2.07620047246521     -1.96495801678193
  C   1.48084747566706     -2.65033032770126     -1.87972791064218
  C   1.26731042328300     -3.67634572206531     -0.77317235949141
  O   1.20224516006889     -3.02800116961546      0.50901698088020
  C   1.62888799292651     -3.72168604691221      1.58240915624391
  O   1.76454496533816     -4.91202247491178      1.59100597232813
  C   1.97839382639115     -2.81097374652653      2.76644858551299
  N   3.30695753670281     -2.16664206581400      2.65424459335761
  C   3.34438184817454     -1.32943883122508      1.50284504083124
  C   2.84941034902494     -0.03616628757235      1.58493472578119
  C   2.51218676238533      0.65885160500999      0.43286522909637
  C   3.61352818744939     -1.88497045891400      0.24598308352135
  C   4.22350667722271     -3.17203597286361      0.14747679771824
  C   4.77481481730148     -4.23673855398575      0.11879088514612
  H   1.33221256858494     -3.14990691086947     -2.83594265341830
  H   0.74496314698989     -1.84633061891647     -1.78594353515824
  H   2.06227129241237     -4.41960977205271     -0.75574763335922
  H   0.31723616320119     -4.18224300653754     -0.95752866720121
  H   1.97230179261370     -3.42913310798553      3.66124155861983
  H   1.22789733720027     -2.02694526699731      2.86026367316084
  H   4.01683059581696     -2.89015986043384      2.59644597210179
  H   2.68588612546875      0.39783383302099      2.56249622976802
  H   2.13559538906554      1.67074487531606      0.48989873290281
  H   5.24396879253556     -5.19129610340748      0.08307634209251
