22
Coordinates from ORCA-job 17522optt
  Br  1.66213569109161     -1.89016179869301     -0.26861116758032
  C   2.89266589566773     -0.51144899563844     -0.00536583162421
  C   2.55303917540101      0.78878116673576     -0.19582297220338
  O   1.29500440718486      1.05255864637708     -0.62207928315951
  C   0.86187599906035      2.35175501150127     -0.47975142105577
  C   0.57430250199516      2.84345395786897      0.71289324165333
  O   0.53067929896717      4.20864309449326      0.88467861467480
  C   1.72953121435838      4.85053485830248      0.60205127387096
  O   1.74942941623138      5.95866473015260      0.21059964467980
  N   2.86424592860195      4.02346891043286      0.85784562893715
  C   3.37819225481190      3.30042946828266     -0.24520103551217
  N   3.63843635949363      3.89148115113451     -1.32581242894047
  C   3.56234815662640      1.82595689904036      0.00362296168252
  C   4.78498872079514      1.41074515469585      0.37729132752688
  O   5.12058504377058      0.14207195818485      0.58567853445643
  C   4.22821832489465     -0.91130491462897      0.40695506149223
  O   4.62303617029370     -2.01571312768268      0.60509369970131
  H   0.87500002479773      2.95616990248426     -1.37905285583020
  H   0.49625226686684      2.23752972941589      1.60881654110920
  H   2.69645174969574      3.40982121418467      1.64384906213650
  H   3.96707892807634      3.23635715934718     -2.03052901107918
  H   5.61150247131770      2.09120582400855      0.53585041506411
