22
Coordinates from ORCA-job 17526optt
  Br  0.96649308375826     -0.18756953627774     -0.38023849188586
  C   2.82068149251848     -0.04529721900313     -0.22048155956893
  C   3.56731408817460     -1.15272951130414     -0.18121900781193
  O   3.16044270258673     -2.43374522506277     -0.23941084517185
  C   4.29005299054410     -3.29842374855722     -0.16045206481368
  C   5.49377540376392     -2.38127212529445     -0.04556280562358
  O   6.65434936411985     -2.64962744462557      0.04501517468561
  N   4.94527686798319     -1.10412954065027     -0.06798036695944
  C   5.61433640878130      0.09253500737325     -0.01217252123522
  C   4.94235711339494      1.25671956269132     -0.04604434238850
  C   5.73591356025559      2.48798126887096     -0.02476730288587
  N   5.27714203319265      3.65957932610779      0.30668179597198
  O   6.30393462515903      4.52190081466153      0.19820470164069
  N   7.42869894618091      3.90180122092867     -0.20504163565489
  C   7.11895310238576      2.65775413787681     -0.35293272530125
  C   3.44810792898099      1.28586929615841     -0.12087711714024
  N   2.71345654266048      2.32009378795053     -0.10913713082659
  H   4.35230857045695     -3.91074965359315     -1.06004860071245
  H   4.20940250756513     -3.93951462730617      0.71743651817969
  H   6.68873456388345     -0.00298406615641      0.06746773078351
  H   7.84878222685069      1.94296771166947     -0.69445747567566
  H   3.25148587680296      3.17684056354229     -0.01798192760556
