23
Coordinates from ORCA-job 17520optt
  Br  1.06809139021291     -0.03420769832533      0.01702524240798
  C   2.94456215192274     -0.05111244397797     -0.10112474037468
  C   3.62285996115778     -1.25569735869502      0.00736250550701
  O   2.95343735060901     -2.40990472222479      0.25816936474959
  C   3.52513084063474     -3.57403149367350     -0.28237666545493
  C   2.83922286883789     -4.79162592066949      0.32592973623451
  O   1.93780879174485     -4.70576325745723      1.09993899020059
  C   5.03299205125157     -3.68676770391545     -0.06293251524823
  O   5.60153932002763     -4.75116270229009     -0.05515623637776
  N   5.66287846467588     -2.48911945973561      0.08337769668731
  C   5.01501929140813     -1.25839123200738     -0.06727846458104
  C   5.72831434071861     -0.08541282385867     -0.25707044686344
  C   5.02182285108151      1.10309914746648     -0.34851044468739
  O   5.62891761048761      2.32658939767262     -0.58728222395892
  C   6.81487432464169      2.64649130943775     -0.03563761057235
  O   7.48227226724431      1.95420804389427      0.66505738883439
  C   3.64032296297776      1.13420680052719     -0.27823115380528
  H   3.36317179595832     -3.61818976399351     -1.37103125242401
  H   3.25151346611106     -5.75302099962453     -0.01868395789524
  H   6.66842330990504     -2.51719281104280      0.17958736406379
  H   6.80615800130577     -0.10172821964765     -0.30763169041583
  H   7.06984359598986      3.66739640397499     -0.34012717608094
  H   3.11782299109506      2.07533750816578     -0.36937370994514
