23
Coordinates from ORCA-job 17523optt
  Br  8.12463421138910      3.39218985395712     -1.99892100564220
  C   7.94037157661198      3.00017261033908     -0.17001211863379
  C   7.94082849450658      3.97128636803316      0.77206112243140
  O   7.74332696252300      3.62345310210969      2.06897802656398
  C   7.05339835795727      2.38991354325345      2.23562733209577
  C   7.77940106247363      1.37802639809679      1.39484495663435
  O   8.21805716630428      0.21799688740143      1.97831884639985
  C   9.46514316839262      0.25116021626009      2.59430054521547
  O   9.92974765202983     -0.73566916072372      3.05213412954826
  N   9.94526956468482      1.55256301689434      2.67510562410439
  C   10.58260986714797      2.06670075041234      1.71455189351657
  N   10.70975717411171      3.43274386802358      1.60448462498189
  C   10.94628858602816      3.96841498664773      0.34837568642794
  N   10.44598917946081      5.01375778184173     -0.14717131150022
  C   9.37054841553123      5.74101476247338      0.31915508616862
  N   8.21182577126201      5.32455027101089      0.65594326052158
  N   8.12355910588075      1.67586876843445      0.21810781459355
  H   7.07831885189247      2.14990683201778      3.29363316349288
  H   6.02294239736118      2.50839701269840      1.88318675913558
  H   11.00463956821422      1.50465306768726      0.88001999519197
  H   10.10999236902749      3.95251716101670      2.23932421029692
  H   11.64436087687932      3.38636307376189     -0.25026448893928
  H   9.51698962032943      6.81701882835242      0.27921584739450
