23
Coordinates from ORCA-job 17535optt
  Br  1.13216166810868      1.14722100444714     -0.81477591437988
  C   2.80786378396211      0.46359641247996     -0.34848348700497
  C   3.11317750362086     -0.84662029744618     -0.52853715577818
  O   2.29885463684457     -1.75926672386704     -1.11282728150328
  C   1.51818685010472     -2.55307793340090     -0.22692339075924
  C   2.17849525214807     -3.64056473786860      0.62952392078214
  O   1.50995592334019     -4.05026917013571      1.55334731187261
  N   3.39106724079629     -4.20140467766581      0.35346150201728
  C   4.44499500620385     -3.81283651646737     -0.57089557605277
  C   5.08172358940983     -2.52567144858493     -0.14670999620094
  N   6.28815464576573     -2.40584811901946      0.31802602049429
  O   6.44395896237553     -1.03947270923991      0.65683650302011
  C   5.30629230533273     -0.42465525289426      0.37744470929068
  N   5.04191090835984      0.87947126047125      0.55471281111929
  C   3.77858523780224      1.42280305866108      0.21490243439311
  O   3.57570176134841      2.59628026381503      0.39364339550126
  C   4.39598975369860     -1.29103246715251     -0.13650345748355
  H   0.79057229811959     -3.06321958932164     -0.85737444016229
  H   0.97543417708912     -1.91632075779909      0.47270370589366
  H   3.64473863598979     -4.87562908095621      1.06205860267152
  H   4.04112306827659     -3.69385030153863     -1.57590594646176
  H   5.18431045497708     -4.60987303200960     -0.58982163984097
  H   5.71774633632556      1.52824081549341      0.93509736857189
