26
Coordinates from ORCA-job 17539optt
  Br  1.12534419267345      0.86610991639629     -2.60269486452526
  C   2.19928469190072      0.66567717371255     -1.06328616092744
  C   3.17453571269723      1.55924535946040     -0.77280621607514
  O   3.39736606581348      2.63330249448710     -1.56856124887095
  C   3.01236955716817      3.90756771482271     -1.06546484866414
  C   1.50142070603635      4.15295610757155     -1.17924181936819
  O   1.04920016309940      4.70216812154854     -2.15585672978175
  N   0.67572513549990      3.79653600493876     -0.14230044368248
  C   1.01046032099958      3.11511183570867      1.07827079879321
  C   0.62993240878471      1.63051602812194      1.09545825016359
  N   -0.35498816654451      1.09491945638589      0.53524236005518
  N   1.57385112456671      0.83247164475227      1.79747175370080
  C   2.35079534920865     -0.09910836476716      1.12031172415102
  S   4.07037466093298     -0.04853585158823      1.51608263030199
  C   4.20429348585299      1.37086086487243      0.33258003116682
  N   5.10092927728656      2.24419888644130      0.47025203368152
  C   2.20560864855602     -0.47979529696118     -0.17768046407778
  H   3.47058191501624      4.63124578588900     -1.73302615829142
  H   3.40400730770685      4.05486608047967     -0.05858004834079
  H   -0.28774313500646      4.05162523354843     -0.30741743010836
  H   0.51627754153437      3.60617666622138      1.92211316372945
  H   2.08289058487868      3.20138721667958      1.24810985986423
  H   -0.89184640757606      1.76897413302645     -0.00864989180919
  H   2.10447306017520      1.34024355331815      2.49165353517361
  H   5.74948581199730      2.03792946323859      1.22856894910980
  H   2.76436998674144     -1.34365022830512     -0.51554876536832
