20
Coordinates from ORCA-job 17559optt
  Br  1.30903778822070     -1.06978856285399     -0.18727428637486
  C   3.14401990208115     -0.73934798443022     -0.26722879286535
  C   3.95881766088842     -1.13033280276530     -1.25648669482428
  O   5.28695781089438     -0.72441203245749     -1.24026509848464
  C   5.94881809975710     -1.09123618384943     -0.11892715384898
  C   5.39039536533463     -0.93990410537055      1.08376808126088
  S   3.86537645991188     -0.03875127110951      1.16974862336099
  S   5.84885588956675     -2.13303939538227      2.29023772820749
  C   5.40265069993109     -3.59023538714825      1.41199989679305
  N   4.87952160380640     -3.55010185705475      0.26045251851868
  C   4.69589008892616     -4.70634178123525     -0.50622289972032
  O   4.54149265034200     -5.82466073701508     -0.10614365663099
  C   4.74204499500220     -4.40192811496665     -2.01438580673438
  N   4.83189508903848     -5.27475687349335     -2.89750750823669
  O   4.81501867758295     -3.06030920965935     -2.32075509462428
  C   3.66869967626976     -2.33821242450147     -2.07303786194258
  O   2.59014692766202     -2.73542511608780     -2.37631540701229
  H   6.88936754978726     -1.59940283426177     -0.29702507100379
  H   5.67524134572952     -4.51234032033031      1.93217217116835
  H   4.82575171926709     -6.19647300602717     -2.45580368700601
