23
Coordinates from ORCA-job 17558optt
  Br  4.41780696838924      2.63274366579492     -5.00279175265116
  C   5.16740640177821      1.98997270630153     -3.41963499972042
  C   6.49006803273927      1.97795890235047     -3.17898352667325
  O   6.86101598033726      1.57166199647816     -1.90661992304258
  C   6.51484364222430      0.23973828289966     -1.72653116060459
  C   5.22868699497459     -0.07581570389552     -1.77281669824423
  S   4.11321628196618      1.20934619595308     -2.25521038423958
  N   7.70278019807553     -0.50353024295842     -1.64925501947861
  C   8.16577173408713     -0.88710555470162     -2.76209298404200
  C   9.64960306483984     -1.09191920803214     -2.90077840198279
  N   10.44004394669058     -1.27269421114657     -1.93608106088353
  N   10.13302369180650     -1.02310934356376     -4.21164234675978
  C   10.15745147219417     -0.04851295072028     -5.01177788259008
  C   9.61494547596577      1.36052445622096     -4.92082687499152
  N   9.92196448605839      2.11499504555117     -5.88836199737660
  C   8.65613626653287      1.68812933674334     -3.83359123216467
  N   7.47525281027650      2.05314454768398     -4.14790146796148
  H   4.84350218068192     -1.07711473577951     -1.66058054202040
  H   7.57217353540595     -0.88107543013035     -3.68232533383810
  H   9.91020043188608     -1.29822282417395     -1.06361246609382
  H   10.61088386869525     -0.21280647054541     -5.98993692459374
  H   9.46792077845683      3.02627691124746     -5.79828602072915
  H   8.95430175593756      1.48141462842280     -2.80636099931788
