21
Coordinates from ORCA-job 17555optt
  Br  2.62373004427342      2.99094645480728     -1.57829228152836
  C   4.16819776124168      2.13781247890803     -0.94674064678388
  C   5.38713085227456      2.66763206882281     -1.08443951692028
  O   6.43488486070041      1.92398396616018     -0.53104870537038
  C   6.53646894640965      0.67956420879380     -1.11661182898685
  C   5.49205936796996     -0.13924538504759     -1.04468358681031
  S   3.99564137965391      0.48455158970527     -0.36597868665518
  C   7.77145250209113      0.45022227615508     -1.91825524400574
  N   8.52315799641176     -0.54189498890928     -1.97170432680192
  O   7.98401202452769      1.53754740615045     -2.77262025940133
  C   9.07618788615228      2.32860280923152     -2.63265761142484
  O   10.03058025869049      2.10588588045813     -1.97126179239164
  C   8.90173872865994      3.64711935417545     -3.43710347867018
  O   9.64621919399252      3.96424343940642     -4.29750686708603
  O   7.85264526239117      4.43335614231479     -3.06045608296704
  C   7.14880091116552      3.94834391210098     -1.98496350313215
  C   5.84298765204670      3.71111925132816     -1.99039353500023
  H   5.47788916983954     -1.12801235700202     -1.47952540236240
  H   8.24349364657768     -1.25105822529584     -1.29646286273464
  H   7.76624163618445      3.63602175821739     -1.15332152331186
  H   5.18847991874545      4.05225795951895     -2.78097225765475
