21
Coordinates from ORCA-job 17554optt
  Br  3.59506877699960     -2.19027026173571      3.61294479703958
  C   4.80734404330831     -1.25787987851822      2.53747880841562
  C   6.13477781786962     -1.43727423093144      2.61468243817477
  O   6.92818616445055     -0.75313279462581      1.69254170543257
  C   6.66233969007263      0.61609074078433      1.55922366207871
  C   5.43614878377199      1.06236535524000      1.39280034644984
  S   4.09493747397039     -0.07607807277287      1.45142657216196
  C   7.98866985043071      1.19896891560961      1.89416919989336
  N   8.17801494190892      1.53102022453832      3.09496172806269
  C   9.37587625394640      1.11531604989273      3.74020115873401
  O   10.36911663674822      1.71744979459569      3.98261125662355
  N   8.96678802348441     -0.16122344965841      4.22618463433660
  C   8.90948355098120     -1.20594336705398      3.52177595308150
  C   9.71820636856832     -1.41734936015325      2.26047554694281
  O   9.74152210493124     -2.46758036214389      1.69380043405598
  C   7.93163936005104     -2.28408137240118      3.90007726567791
  N   6.72692263606490     -2.30793807225251      3.50298476401770
  H   5.20189317943428      2.11370478870549      1.31679732779509
  H   8.79643272802087      0.92779110254558      1.20529489760344
  H   10.33065657263886     -0.55158310836754      1.94220648986331
  H   8.25297504234744     -3.06337264129692      4.58636101355899
