21
Coordinates from ORCA-job 17560optt
  Br  1.80542008341166     -1.51765820028851      1.19555050382021
  C   3.39249900170982     -0.89700352395274      0.40281366012432
  C   3.52066867057423     -0.83753795467780     -0.91673852555271
  O   4.71786590614470     -0.43168886515810     -1.49827056211222
  C   5.83608932120288     -1.02969150415862     -0.97467210616062
  C   5.97855561997126     -1.24065290411142      0.32870554275403
  S   4.77388237605657     -0.60936287880802      1.45502241233596
  S   6.96010747897103     -2.66270511843109      0.84253973382737
  O   7.94435862609670     -2.88077237966681     -0.17877648603237
  O   7.31881982076807     -2.50554897715952      2.21530071041089
  C   5.61392106114529     -3.77779379604423      0.65780283164773
  C   5.28733974405901     -4.03755297844295     -0.61290579908453
  N   3.95993375781383     -3.89179402594816     -1.00589258252138
  C   3.86334601729395     -3.25226769999927     -2.10354282834102
  N   2.71579757110184     -2.54628169925969     -2.45070356706957
  C   2.53762677403057     -1.42386140192987     -1.88994968651575
  H   6.52803054395346     -1.40372142038937     -1.71991491229061
  H   4.85731191615136     -3.67887535060285      1.42655142228241
  H   6.06612396077422     -4.03924566810465     -1.37723488083159
  H   4.68873032915420     -3.14342167284074     -2.81696358224659
  H   1.63357141961529     -0.86656198002558     -2.12172129844396
