21
Coordinates from ORCA-job 17569optt
  Br  1.99957231196022     -0.88885228041368      0.11391733645189
  C   3.52229047371035      0.19347153144156      0.03507428180454
  C   3.42962797464694      1.52926286904926     -0.10567963833443
  O   2.24680427223639      2.18398003692518     -0.26698836859789
  C   2.23924504752555      3.44096306096338      0.28239721324887
  C   1.90760893202320      4.53796078544482     -0.38181480577387
  S   2.61106617194703      5.98531598265023      0.29376891368961
  O   2.61952656592364      5.88661901483251      1.72657663076633
  O   2.05486462094227      7.13419667714362     -0.35744779164207
  C   4.29665282372043      5.89786361702174     -0.27734931651701
  C   5.05924029165241      4.81566102885455     -0.51388023372688
  N   4.59625588322553      3.55536941512797     -0.33628367075773
  C   4.65619844377255      2.33316757597740     -0.17552117326439
  O   5.82973065084342      1.60921884900350     -0.00764492431534
  C   5.78168856398304      0.27230115439244      0.10756160073680
  N   4.73758731249354     -0.44681492549544      0.12142282740955
  H   2.58173109627997      3.49340275908392      1.31041583265394
  H   1.63978011301567      4.56482550288987     -1.42812607069084
  H   4.69368395611965      6.88886649256418     -0.45669108006849
  H   6.06324781850455      4.96362208996516     -0.90699113678581
  H   6.77059667547357     -0.15940123742224      0.19428357371323
