22
Coordinates from ORCA-job 17564optt
  Br  4.06424656921240      2.01149908310101      1.77943120164071
  C   4.95526093981803      1.02216777559944      0.46612623767424
  C   6.00083782434592      1.47999991694718     -0.23717659863554
  O   6.53577156398873      0.65301672454749     -1.17388225426483
  C   6.54554950839818     -0.67169546159893     -0.83589506169076
  C   7.69000619202500     -1.35837681810277     -0.94548357317060
  S   9.21351590916799     -0.56940092788838     -1.32082308523395
  C   9.35383060371323      0.56862304648752      0.07470106499425
  N   8.75575627906011      0.53196026191091      1.18155067246385
  N   10.38625100186071      1.48236847048168     -0.15631966144359
  C   10.25740174889452      2.72438393897869     -0.31315099051851
  C   8.97798072644027      3.54580898246267     -0.43505756923986
  O   9.01792370652893      4.74453289645837     -0.42995737650857
  N   7.87579856395914      2.75335572716815     -0.70379418280696
  C   6.83851480988316      2.66345561167441      0.00340877689588
  N   5.35681777661126     -1.19939420081508     -0.34802451174405
  C   4.57135288210507     -0.37345806749316      0.23236444062751
  H   7.67377826949372     -2.42690083422360     -0.78707203344034
  H   8.13599470656668     -0.27369718368020      1.24957818932919
  H   11.15422011736454      3.33663296551140     -0.39549295997372
  H   6.61748314800094      3.28462855330341      0.87231592231343
  H   3.62570715256137     -0.73451046083022      0.62465335273220
