21
Coordinates from ORCA-job 17565optt
  Br  3.79097656973425      0.12387385833068      1.16322967508179
  C   5.40597044433570     -0.80860116492273      1.59750425709747
  C   6.56796686173349     -0.09045314883647      1.64748552016404
  O   6.79924454295576      0.77302030185870      0.63232944340801
  C   6.80383715033301     -0.09088254398032     -0.51119257034580
  C   7.50015809163018      0.39352139879836     -1.53780205358186
  S   8.35523327994122     -0.51927601298623     -2.75614043578515
  C   9.38466743197745     -1.68131032922852     -1.79676421056005
  O   10.11241247304253     -2.37762737315759     -2.43338955660407
  C   9.25867948800448     -1.79504201353715     -0.30674784325559
  C   9.21082423569137     -0.78418378836385      0.54757735189887
  C   8.86150707549043     -1.00369855297838      1.97716728095318
  O   9.51162266563252     -1.55605153683600      2.79125271257821
  O   7.60597992749674     -0.50849832912604      2.39188663423593
  C   6.31163615605974     -1.55266213089316     -0.39829133276964
  O   6.45957460867728     -2.32852796797157     -1.30083984182564
  N   5.70794620069970     -1.91724443366568      0.81315325562289
  H   7.75952024923967      1.44528623946084     -1.48129667570615
  H   9.13971174958013     -2.81972191585766      0.03150035597176
  H   9.30568529413008      0.24758808233419      0.23469608684871
  H   5.19484550361415     -2.79250863844140      0.81268194657308
