21
Coordinates from ORCA-job 17562optt
  Br  1.34002292336459     -1.90627479499018     -1.57771025045788
  C   3.00502737497994     -1.31828374552574     -0.94789906326413
  C   4.16024180872730     -1.58497838569966     -1.59270654839517
  O   4.26728328693923     -2.68985074309753     -2.42413132140790
  C   4.32823513073683     -3.65461777189661     -1.41446405793929
  C   3.31898947194610     -4.46634032736216     -1.13426887459771
  S   3.22446655023459     -5.21748431532838      0.45635343461507
  C   2.07760135553782     -4.03924820706978      1.26596349538156
  N   2.15796412433290     -2.81932889580032      1.49894648551945
  C   2.88069517597872     -1.68884857107071      1.47297309939264
  C   3.10996262815591     -0.85555119106227      0.42670958702183
  S   4.20148929111823      0.48033438539590      0.66270489084560
  O   3.74567519773376      1.65512787246682     -0.01607543371063
  O   4.61300068013527      0.55275202205695      2.03483564561846
  C   5.54391133877723     -0.17861420719684     -0.33105882100384
  N   5.38593158553854     -1.03626428829431     -1.24759330978062
  H   5.20508520814519     -3.57863806904249     -0.77809714350702
  H   2.46860117868051     -4.56388383036275     -1.79272739175212
  H   1.17825573078169     -4.55859294926433      1.59665039823790
  H   3.23667950006180     -1.37114511464518      2.45134787909447
  H   6.52188045809377      0.25273112778960     -0.12875269991068
