22
Coordinates from ORCA-job 17567optt
  Br  1.76674264594366     -1.92457061674962     -0.67408984663476
  C   2.90986492911964     -0.49018938323907     -0.34834240283815
  C   2.87273740331355      0.67168698435125     -1.01656403294959
  O   1.86330158026814      1.05439611006587     -1.86472464071107
  C   1.09872665924643      1.95852158802999     -1.11894584319398
  C   1.33340980193520      3.26021535817382     -1.18382907454471
  S   0.70494544638988      4.41121283023523      0.00675224872043
  C   2.25143702619375      4.49370901095375      1.03045486336279
  O   2.82525437201543      5.51302713045958      1.22140315095434
  N   2.63518915167093      3.24666608440738      1.50345957332048
  C   3.97494712701481      2.81410704895528      1.63877014815451
  N   4.87071172377628      3.49380405529780      2.19147336748283
  C   4.07792076055946      1.51963503761632      0.87656466637917
  N   4.05380462421659      0.40592897174394      1.48894994233824
  O   3.76973183409569     -0.70100750003522      0.67367028245146
  C   3.86715964615464      1.65880100278277     -0.59266497376244
  N   4.33496545994330      2.56807775109224     -1.33330611394643
  H   0.40710036256795      1.49126750418110     -0.42210770690202
  H   2.04008928343059      3.63514895975466     -1.91327281568781
  H   1.97935970217178      2.51424394684108      1.27587641928392
  H   5.77521722592929      3.03066884711585      2.12683262342132
  H   4.94138323404293      3.20964927796597     -0.81735983469854
