23
Coordinates from ORCA-job 17561optt
  Br  1.60656084042667     -0.43638691838161      2.30842230577664
  C   3.09871196158021     -0.29252250501011      1.18484318872165
  C   3.58859503998797     -1.33123599794193      0.49942999161047
  O   2.91058722154287     -2.49517696817109      0.32109160346959
  C   1.65945121500882     -2.41744944309716     -0.21983715196883
  C   1.08870255348028     -1.46083389762893     -0.96383305714739
  S   1.82658344268267      0.00899938283751     -1.62209053865609
  C   1.02492189645541      1.23263721142565     -0.61739123852006
  C   1.65004431995539      2.02366575804709      0.26444830745370
  N   3.01156085144980      2.05918073744061      0.53446925405326
  C   3.67906659796485      1.02558216741543      0.86075174872862
  C   5.13705609457957      1.04383359681526      0.65335699356307
  C   5.72323906064197     -0.04991689635172      0.17073457361741
  C   4.93498877190612     -1.26280053230374     -0.12087636129690
  N   5.31317076107101     -2.23844500543680     -0.83918029746333
  C   0.88849347352568     -3.58926217536969      0.11333176020268
  N   0.25695626649081     -4.51008545668404      0.37281165274430
  H   0.05718902074082     -1.64612484779579     -1.23610142492619
  H   -0.03124618035941      1.38661781113859     -0.79710503447084
  H   1.07824243946796      2.81704933320983      0.73597919327499
  H   5.64773554584048      1.99109446217613      0.76486470670836
  H   6.77113126619248     -0.06365382501401     -0.10344378066411
  H   6.26525753936755     -2.09276599131947     -1.17767639481100
