22
Coordinates from ORCA-job 17578optt
  Br  0.65481180864592     -1.55768514407348     -4.04876239095052
  C   3.64176972789293     -1.98494922658282     -3.10429697538740
  O   4.95257404171009     -2.28528319530183     -3.08567623019681
  C   5.80298838806403     -2.43250349531969     -2.01812091902436
  N   5.95697540832745     -1.76881921478634     -0.97392320723446
  C   3.80045940609443     -0.94484870649389     -0.22824788462290
  C   3.07654566256323     -0.02558579628782      0.50949475021629
  N   3.62660480386783      1.06436998437426      1.03957414073956
  C   4.92700557029460      1.24704979078327      0.85552980162411
  C   5.75018363917721      0.35828649953404      0.16799886359488
  C   7.21023237973657      0.60740243471284      0.07740173423756
  O   7.74588226278382      1.56841510069089      0.56111038123703
  C   5.16975119164793     -0.77687892949203     -0.40560366157948
  O   3.18541043052522     -2.05229834372656     -0.77210504845790
  C   1.36124969884787     -1.58012330652577     -2.22185710543914
  O   0.64314084611046     -1.35446330382138     -1.31403219146695
  H   7.79069580744753     -0.15960607263848     -0.46022708688941
  H   2.01447676594601     -0.18821090488322      0.65570056254064
  H   5.36986207464009      2.13960582858324      1.28226988081918
  C   2.79772330851060     -1.89677685193186     -2.07553244932368
  H   6.50270094882144     -3.22534546115459     -2.26091311421713
  H   3.28795582834469     -1.86175168565876     -4.11578185021907
