22
Coordinates from ORCA-job 17576optt
  Br  2.21739711638949     -2.26706160853401     -1.56859013050201
  C   3.49468129708883     -1.02808951070492     -0.98829488044756
  C   3.76305212215129      0.10238301226100     -1.65989857630351
  O   4.93412828619048      0.77052880613179     -1.37125070918326
  C   5.84955925962696      0.07614963740664     -0.64004922203999
  N   5.57383439474234     -0.85472450283663      0.16257726605583
  C   4.19944244098256     -1.12736034882003      0.29845313547752
  C   3.64070542156429     -1.23544138799530      1.51637982168521
  C   2.18875383184336     -1.19393985497851      1.84294560021225
  O   1.76610345875191     -1.68383592224242      2.86235526631121
  C   1.27214323144478     -0.53844807742934      0.85697647576065
  C   1.64650318242062      0.50455752625769      0.13626433020067
  O   0.93200833696786      0.90222010033987     -0.97379273591600
  C   1.60546202410338      1.19946514568323     -2.11018977590247
  C   2.85291300387927      0.87065221011326     -2.49888013089898
  C   0.78490776175055      1.99539963584610     -2.99208325000006
  N   0.14356348650212      2.63322609881489     -3.69531601539617
  H   6.85753374485502      0.43246953668921     -0.80962519359949
  H   4.30295662260485     -1.30726211306138      2.37054766902205
  H   0.34288574673455     -1.05014503259668      0.64049155482693
  H   2.54330950757587      1.08228299504843      0.32866597207632
  H   3.21215572182955      1.30697365460711     -3.42168647143913
