22
Coordinates from ORCA-job 17573optt
  Br  2.91983193452997     -0.91070887883583     -1.79121708220715
  C   2.37230004267298     -1.52437949456771     -0.05445450467188
  C   3.36687451363626     -2.18561946583080      0.64739899944793
  O   4.61926700841817     -1.72265607721089      0.58111444535781
  C   4.49284399058820     -0.32859501976196      0.93477116655203
  N   3.41749947052249      0.27943879334378      1.14514025514900
  C   2.16352773847374     -0.39115936125505      0.88833469578508
  C   1.08849379628899      0.03849167181601      1.56045187144032
  C   -0.29862546764323     -0.42553974127210      1.59535893736529
  C   -0.95448499275543     -1.59530836581051      1.69103882467682
  C   -0.55768275261086     -3.03507250035683      1.74629717150987
  O   -1.42031353137003     -3.86719094996836      1.88090165002609
  C   0.86213104602011     -3.41200733687744      1.50765052535326
  C   1.84749308428037     -2.88726018168046      2.19714542934934
  O   3.16853960358379     -2.93027416850699      1.74221118720372
  C   5.78881342910390      0.26610007535307      1.09315805771655
  N   6.82317250230093      0.73991886375714      1.22133331730087
  H   1.25987260847334      0.93351030958482      2.15230749879277
  H   -0.96741183218185      0.43172331575660      1.63905723982316
  H   -2.03513568985064     -1.52132095784036      1.75449036900437
  H   1.05579260364510     -4.02308637068519      0.63504517005317
  H   1.73320089387367     -2.24600415915091      3.06146477497157
