23
Coordinates from ORCA-job 17574optt
  Br  4.58993376907303      1.45529421421575     -1.86342249175221
  C   4.95419307368934     -0.38357153326356     -1.72777879128206
  C   4.11119439579599     -1.31250103372788     -2.17342770955946
  O   4.30363723508588     -2.60575612093261     -1.77171541067691
  C   5.07865118541664     -2.77131281602032     -0.65731312633349
  N   5.95760091306552     -1.97118643448579     -0.23683489881610
  C   6.18500365161484     -0.85951648076277     -1.06702132275990
  C   7.39979745116060     -0.38948658720361     -1.37917132789658
  C   7.43369245073931      0.37550682920602     -2.65976940645260
  N   7.18120743149230     -0.31700433400658     -3.69124491767673
  C   6.59579514701093      0.21811825809835     -4.86189516767182
  O   7.04106127807091      1.02519343618242     -5.62287644027880
  C   5.26079464017511     -0.47163922647679     -4.87822041028707
  C   4.12269514061043      0.19668729017195     -4.73289809159543
  N   2.97689724463215     -0.39870655697735     -4.18004642472355
  C   2.87135296080008     -1.14453471383913     -3.02515932746600
  O   1.82975293198833     -1.64084869790869     -2.68077285510689
  H   4.85656035135194     -3.70885228669223     -0.16440971346797
  H   8.28783083742619     -0.71163372361607     -0.85237506432553
  H   7.49705073610380      1.46694694184433     -2.68158836907457
  H   5.28730269879310     -1.53171645623700     -4.65703684819456
  H   4.04977965332415      1.25911267166048     -4.93807160433309
  H   2.07121482257938     -0.15259263922889     -4.55695028026864
