21
Coordinates from ORCA-job 17571optt
  Br  2.26179268593542     -0.94073555029539     -2.00873077139956
  C   2.91865611610168      0.22180858430866     -0.72310629961386
  C   3.18098883058240      1.52933098505716     -0.97445898731750
  O   2.78548045283638      2.10087078472196     -2.15987447498110
  C   1.45383858796260      2.47897702572406     -1.98097548575022
  C   1.14519179348480      3.54066119405471     -1.25036427570242
  S   -0.65138153724706      2.68662502224349      0.32182484650383
  O   -0.14705737030724      3.77397427554459     -0.82942584726374
  O   -1.91037889877560      3.19238633356592      0.78569913963755
  N   0.47347372608997      3.21396027825085      1.53722948584727
  C   1.40484420031622      2.47144954576181      1.92102122661720
  O   1.63451066100741      1.19811073045915      1.42496554701946
  C   2.90219224329285      0.78277722666485      1.30458207199534
  O   2.93983461170778     -0.36470047684588      0.54964635227800
  C   3.97485992107536      1.59808443143761      1.31190062826472
  C   3.77714633030406      2.46398942043303      0.07496311811313
  O   4.13433205177615      3.57285061832443     -0.16313539246024
  H   0.71795706131809      1.78776899346316     -2.37698315426866
  H   1.88726221576107      4.23343130902727     -0.87519789974442
  H   2.11233109377600      2.76826012820269      2.69172854237662
  H   4.91912522300166      1.06811913989584      1.22469162984858
