23
Coordinates from ORCA-job 17579optt
  Br  4.75194192763880      2.95305673121487      0.76893986533284
  C   4.01758781703798      1.91341404315819     -0.61099183213281
  C   3.87744787071389      2.41836376437489     -1.85644701842936
  O   3.28667033439600      1.63582875522993     -2.79638413045689
  C   2.38590365306007      0.66794770948046     -2.38924446738887
  N   2.68311306313306      0.00951030157364     -1.21626196696373
  C   3.48472267365965      0.58728198704545     -0.38975381562075
  C   3.83731474243811     -0.28259791085394      0.79701574162151
  O   4.81296044816105     -0.12534902713590      1.46541421908459
  N   1.38322928060153      0.39961820288030     -3.10643030541333
  C   1.19191552030722      1.16406927124356     -4.27654235494468
  O   1.47797299511563      0.78077303784959     -5.36450636538850
  N   0.66200391080361      2.48172236316941     -4.03606058476013
  C   1.75092398262944      3.36494253314619     -3.96558476908305
  C   1.99236827051601      4.27914636535759     -3.02858523925372
  C   3.39494992190400      4.66634279434859     -2.77008571467681
  C   4.26911986600663      3.77780496175428     -2.27839632261045
  H   3.12857598552109     -1.11577823495255      0.93567775874531
  H   0.11710173673346      2.50228275586190     -3.18126499933750
  H   2.51523138329744      3.13906848735448     -4.69896002670859
  H   1.23818786339432      4.56923684514860     -2.30321700409727
  H   3.72794338432584      5.69259302401724     -2.89324259905160
  H   5.27181336860497      4.08472123873309     -2.00708806846606
