22
Coordinates from ORCA-job 17588optt
  Br  2.47112067378765      2.12963985403290      0.64424486573164
  C   3.99375555392480      1.23819197792349      0.01183387631558
  C   5.15980435354074      1.84951828632084     -0.26437993102325
  O   6.19875411059781      1.06242499446209     -0.62760064148607
  C   6.22101422471352     -0.23355695515201     -0.15917524687190
  N   5.02218393105588     -0.91610461728155     -0.29587575394106
  C   3.96347503223666     -0.20193449051379     -0.19062636911126
  N   7.25110113188513     -0.73153457415491      0.35606811015649
  C   8.37162093296801      0.04610589829779      0.71710309412135
  N   8.92227246986917     -0.18825588361775      1.82484409222981
  N   8.89151373780279      0.95700916832573     -0.24260504108950
  C   8.56308618839342      2.15823000110834     -0.25866270240236
  O   7.68331950125810      2.72195687336010      0.64430236866651
  C   6.77760643414038      3.61725775476587      0.15431661317205
  C   5.54193932628418      3.26145610847333     -0.22803661248950
  C   4.61818068993757      4.32907431874105     -0.71221560315285
  O   4.81505496634989      5.49748946495355     -0.52712011881892
  H   2.99842726280536     -0.69662899262452     -0.25746696348300
  H   9.72250830622466      0.42610974845785      1.96128272458242
  H   8.95440925312898      2.85341641810763     -0.99774532941221
  H   7.07972808640674      4.66009217448553      0.14187700792375
  H   3.75112383268845      3.97704247152843     -1.29436243961773
