26
Coordinates from ORCA-job 17585optt
  Br  5.76997298323622     -2.08436652163134      2.73809740109174
  C   5.61608121799107     -1.16354321469831      1.11915270154368
  C   6.29975482244016     -0.04615693772452      0.83733938611633
  O   5.96981710567947      0.65160019884616     -0.34232475911377
  C   5.92557538217517     -0.28680122185159     -1.35109445993713
  N   4.92817323210648     -1.21502621333108     -1.17499697964769
  C   4.69109897173731     -1.73196439729577      0.11029407597762
  N   3.84107102899587     -2.62089422226175      0.39400715461878
  C   6.95365634641141     -0.40504538776652     -2.21743939173415
  N   7.42721435657375     -1.72495437557054     -2.26319880154001
  C   8.67631531383246     -1.77328245935414     -1.98086723621883
  C   8.92948477793625     -2.40095804836177     -0.67506849059946
  C   9.31799766843255     -1.47129873631363      0.21347334235491
  C   8.99563486417265     -1.40494109173014      1.65849630032019
  N   9.15812381722557     -2.29735812693013      2.54100716293086
  C   8.47040051431690     -0.05007051331652      2.06565616139810
  C   7.35609242733123      0.56180565876090      1.65837884995556
  H   4.79885536577496     -1.86279338889550     -1.93895684942497
  H   3.30323310504570     -2.90497336678624     -0.42361954447935
  H   7.64341289379361      0.42857194500234     -2.30827904662814
  H   9.34747433923610     -0.94213464788791     -2.22914862128090
  H   8.40923095756522     -3.30911134548268     -0.39487274779363
  H   9.68269039937077     -0.52682331871230     -0.18147908724758
  H   9.57063518625509     -3.13749344443465      2.13238163748827
  H   9.12488873741321      0.49454861674130      2.73945496095635
  H   7.17711418495073      1.58646456098634      1.96860688089319
