25
Coordinates from ORCA-job 17592optt
  Br  3.04551188916983      0.55610005136780      0.96205790816928
  C   4.30645378026267     -0.85815457588970      0.90936845847381
  C   5.58004758205496     -0.60214324779282      1.31643494346349
  O   6.05722489801855      0.58556130554689      0.77075766572076
  C   6.03901507609617      0.25143375276036     -0.60638598059616
  N   5.26317420969115     -0.54596767761359     -1.19763884734402
  C   4.32108552940880     -1.44235736932143     -0.48785041833816
  O   3.75443026801643     -2.31355020031466     -1.03073086948593
  C   7.45223097582730      0.57372039097982     -1.11020174224895
  O   8.00794703505921      1.62805195167345     -0.98203426944335
  N   8.01863480883054     -0.61889690628432     -1.42088114209188
  C   9.39042986822982     -0.97935295539258     -1.09948722548170
  C   9.37843670814666     -2.23795607723796     -0.21249049471211
  N   9.10620888764637     -2.08052622284644      1.20931242753499
  C   8.05999057280012     -1.18027844302306      1.63784440347782
  C   6.64327906227418     -1.67010521774162      1.33920988324210
  O   6.35146800329680     -2.81783108724469      1.12906833140268
  H   7.38070049625769     -1.38554088239759     -1.57749789526727
  H   9.85208656210116     -0.12414796619473     -0.60318228275960
  H   9.95336782188802     -1.17955133796259     -2.01295158187159
  H   10.34839655374563     -2.72885053340783     -0.29276225189848
  H   8.64630553597569     -2.93749702697726     -0.63070428829882
  H   9.95601242524098     -1.86752775847922      1.71074362253592
  H   8.17166129756649     -0.15014954546094      1.28430498768267
  H   8.09590015239465     -1.12048242074526      2.73169665813448
