26
Coordinates from ORCA-job 17599optt
  Br  1.53063181476716      0.31998146194346     -1.70929581151323
  C   3.14779305196391      0.33282538050297     -0.77593655941536
  C   3.82565744443256      1.44173784800688     -0.45030108562942
  O   3.55464863516380      2.76457415245579     -0.68094335968582
  C   4.60706450083246      3.41198782351881     -0.09886911134634
  N   5.49737953339318      2.67950614061745      0.45801359149345
  C   5.05288057369166      1.36203027413437      0.27218676229080
  C   5.58067494439926      0.17957868073618      0.65827893826240
  C   4.87350310781859     -1.04622154111353      0.32691453289707
  N   5.18062287786704     -2.25692625873484      0.59807322389774
  N   3.67772729865114     -0.86109175636078     -0.39513063413622
  C   4.54977690970422      4.89288024570705     -0.16540332622027
  C   3.41227969080932      5.46673758026348      0.71516195562956
  N   3.91246749639508      6.79339461245470      1.00349711928955
  C   5.26997128604123      6.92154721801796      0.89731263442903
  O   5.91443474421116      7.89320192354399      1.20065638026369
  C   5.79874758478600      5.60616880645190      0.34314465915060
  H   6.50637450099118      0.11613427419015      1.21082581062443
  H   6.05270786303417     -2.30417230338313      1.11346083048797
  H   3.19165677282568     -1.71727457607430     -0.62266915227148
  H   4.34674587333594      5.17567629063831     -1.20073869066450
  H   3.29005990285126      4.86754737921336      1.62373474079535
  H   2.46221520418127      5.49376111242563      0.18437209256757
  H   3.38055612286298      7.48764695516176      1.50347003388732
  H   6.26058972043626      5.05082768912712      1.16209047833840
  H   6.55583254455344      5.77894058655523     -0.41690605342228
