21
Coordinates from ORCA-job 17591optt
  Br  4.00819171537320      2.89398614345953     -0.50628964416780
  C   4.74718298398562      1.31920560130653      0.16437870198032
  C   5.83955101649498      1.23522340489217      0.93087863449698
  O   6.16205169710125     -0.02368323124945      1.36457793780072
  C   6.18124755051765     -0.86377394115674      0.24856188694034
  N   5.18080199212162     -0.98628796853375     -0.49248702834291
  C   4.15490170673983     -0.00346232764579     -0.25810499394929
  O   3.00730750786547     -0.18595420667164     -0.51027166816596
  C   7.61752497088196     -0.91250565315242     -0.09548557339060
  C   7.96896920705877      0.17048544206748     -0.84363370894674
  C   9.02775991847678      0.74104639622463     -0.09278398900523
  C   9.46840819270550      2.17012122038696     -0.16677721718039
  N   8.37232660006211      3.13241326954253     -0.11239852983403
  C   7.26425185526571      3.11355350291108      0.44688375913617
  O   6.76273309012534      2.11902984272486      1.32523119882930
  N   9.37497561310627     -0.03154131771423      0.89827737931905
  O   8.49778929779749     -1.08516475785876      0.89868007235595
  H   7.40387424720279      0.61342340148179     -1.64654006799427
  H   10.00431582708746      2.37219261446822     -1.09323005531426
  H   10.14784607565297      2.37989216801903      0.66067229976639
  H   6.58398893437715      3.95380039649796      0.36586060566623
