21
Coordinates from ORCA-job 17607optt
  Br  1.03944397108895      0.01904494991214      0.46823326764769
  C   2.87527550259207     -0.06103742009541      0.20757235139872
  C   3.57260065667520     -1.20529465158266      0.15421754162967
  O   3.17328387416435     -2.49269034277171      0.27318933002384
  C   4.33820015837181     -3.21137953017176      0.13478386161520
  N   5.40947050159033     -2.55639328243307     -0.05837371696803
  C   4.98799971866497     -1.22387007321438     -0.05776548419595
  N   5.70064081515708     -0.16985935862077     -0.22688220208001
  N   5.00416994903896      0.97166367484164     -0.17555634084733
  C   3.65001009883997      1.16550216508961      0.06688215485959
  N   3.08063989665242      2.31460825858027      0.14753282700718
  C   3.79320789040270      3.49023255676175      0.09911439213913
  C   3.48105443440455      4.57431099402351     -0.60977265248710
  O   4.27888787334587      5.67820349204972     -0.44515799865205
  C   5.29377544304543      5.48153643239556      0.44369239150828
  N   6.16707791247257      6.32117259719135      0.75895802313822
  S   5.21553514330434      3.85222770809016      1.12496948429804
  H   4.22518953715212     -4.28196385128416      0.20686583998731
  H   5.57578679209823      1.79458627343510     -0.31208712946596
  H   2.66330960531897      4.69438697319202     -1.29981354314546
  H   6.03244022561908      7.20001243461108      0.26339760258901
