19
Coordinates from ORCA-job 17615optt
  Br  1.00814842600663     -0.21678393838885     -0.20474446178071
  C   2.86909189749545      0.02850779670455     -0.16518376904460
  C   3.68641637894715     -0.96774290033636      0.22857917113312
  O   3.13135408298509     -2.14184846854258      0.67937783773300
  C   3.35089981106273     -3.27752100870905     -0.08749175279075
  N   4.44568724293066     -3.84984867823817     -0.24753528422832
  C   5.65201448827611     -3.40268547689868      0.36002913153624
  C   5.69781733253405     -2.88328567433192      1.75930945737228
  C   5.99660632413695     -1.94166598745579      0.61737433190367
  C   5.12987807052153     -0.81024225405970      0.23112697670993
  N   5.77337814169557      0.26052284645415     -0.10737890481465
  C   5.20288064044593      1.44462156823867     -0.50151566800500
  O   5.81296288792696      2.43631612042980     -0.77281285485146
  S   3.39762219216367      1.58454331855961     -0.65228334884103
  H   2.43159450286413     -3.66915171782442     -0.51084772097502
  H   6.50223640992046     -3.98706321673371      0.03998414716836
  H   6.54193070378351     -3.16834347809856      2.36976830765680
  H   4.76108596767912     -2.76746508764693      2.28053321452702
  H   7.03639449862425     -1.69186376312205      0.46671118959111
