24
Coordinates from ORCA-job 17618optt
  Br  1.59986306860869     -1.47404613861301     -1.57513328367971
  C   2.81632996180258     -0.32986429659762     -0.70999751636297
  C   2.92856737997665      0.96133208985175     -1.03960131853202
  O   2.03758165200109      1.59793380121441     -1.83676790243396
  C   1.66705283709111      2.94142784119931     -1.56311709209395
  N   0.89306269507394      3.41049470491918     -0.70339426132625
  C   0.13458532913528      2.81416709359592      0.38411015204087
  C   0.40535013332991      1.32760372093336      0.68523028368883
  C   1.59770807477845      1.87882447658588      1.46872067583589
  C   0.77128124724580      3.13275971803396      1.78989647446706
  N   2.48017170184897      0.95066143059824      2.22040786231319
  C   3.54854526553822      0.64661158671183      1.43407948106950
  S   3.65323307734037     -1.02391234703412      0.70965847754758
  N   4.23097787988703      1.56760269422363      0.86752097495236
  C   4.12421434297444      1.74648986217110     -0.47976822274937
  O   4.75286887077579      2.48249146474168     -1.19086547005110
  H   2.11610854073347      3.59239409252373     -2.30598669839219
  H   -0.89896778295101      3.12653187414113      0.26209478169012
  H   -0.36448894314365      0.94916577253087      1.36026027412569
  H   0.55462761162285      0.64121959655894     -0.13875458917860
  H   2.28220116989372      2.30553523553871      0.76124475180597
  H   0.01538809784188      3.00309069898893      2.56237428627605
  H   1.30514061116203      4.07242689878545      1.90359444699382
  H   2.01159717743237      0.15005812839671      2.62219343199318
