25
Coordinates from ORCA-job 17627optt
  Br  2.35836785419657      1.42033367911543     -4.11109704498619
  C   3.96206571756730      1.08599547508319     -3.18235607764625
  C   4.26066934376217      1.78524119516728     -2.02036658268991
  O   3.40838061479716      2.75627849443170     -1.57191319518121
  C   3.92358904890194      3.64411773401598     -0.67626374846536
  N   4.94808315193802      3.51955694954762      0.03726863652610
  C   5.65791303163083      2.23639850156186     -0.01188297078339
  C   7.16500755847441      2.47619877215523      0.14385376956972
  C   7.96328894255591      1.20888758009715     -0.05937558854793
  N   9.00827447516524      0.86084915100823      0.56807088597553
  N   7.51121365463063      0.39814925122295     -1.08474700850373
  C   6.34743852850919      0.60645642608620     -1.80276136305739
  C   6.05815417783188     -0.09385501497898     -2.97169578528939
  C   4.86804500175285      0.14230775950249     -3.64183328491929
  C   5.42298837007417      1.52997931517498     -1.32273590939535
  C   5.17279745754434      1.38855073834968      1.09107024606773
  C   4.78898893837853      0.67601740734733      1.97259258220094
  H   3.31686082427885      4.54204030081923     -0.64656781884313
  H   7.37730215074779      2.89678205872727      1.12434401219713
  H   7.46183614943041      3.20014762277504     -0.61979067814727
  H   9.24376195552280      1.53617880452973      1.28833299699265
  H   8.09428012900814     -0.39776172578410     -1.29516092918098
  H   6.76052813086038     -0.82170954164284     -3.35646762939673
  H   4.64101244693417     -0.40495680954288     -4.54628441300903
  H   4.44415234550621      0.04381587523021      2.75576689851277
