24
Coordinates from ORCA-job 17623optt
  Br  1.31715634830890      0.36995083458304     -0.89241264045331
  C   3.06583952884824      0.14672802594256     -0.26278535569528
  C   3.92366454290820      1.17632625762608     -0.19561046951519
  O   3.75304824101265      2.44265812061876     -0.67240179881814
  C   5.01077813738129      3.07626735800443     -0.79373141324609
  N   5.19550618974890      4.08361732755348     -1.49646441583342
  C   6.01448221188357      2.30534456822902      0.07047126198118
  C   7.38517208273350      1.80798650092654     -0.42554918630949
  C   7.48214917525079      0.33860722631086      0.09715681708969
  C   6.02596642838238     -0.05778685055005      0.21979454444711
  S   5.27253574863599     -1.60187292045981      0.16166177798319
  C   3.49058747701216     -1.20700751248192      0.13500161227164
  N   2.66107512774661     -2.13571352600468      0.33742014168205
  C   5.27347001796810      1.03604069799577      0.21374815364939
  O   6.07332298364647      2.93594004318307      1.37157495486942
  C   6.76313041811031      4.08445942604725      1.48242759136780
  O   7.37381755490623      4.62116892919762      0.61384840635738
  H   4.33756057696752      4.38070007385241     -1.96241476642160
  H   8.20374426948215      2.44067983696408     -0.09641989053914
  H   7.37804358320123      1.80683814358285     -1.51548380162963
  H   7.98433240769392      0.28284082031608      1.06553697301054
  H   8.02447320129417     -0.30921193265279     -0.59108764752898
  H   3.09313059313172     -3.02752817278713      0.56854107267999
  H   6.68001315374495      4.44696672400245      2.51417807860089
