20
Coordinates from ORCA-job 17625optt
  Br  1.20872258400953     -0.10401178025706     -0.06628218795819
  C   3.05038730991533      0.13678091798126     -0.06304293796085
  C   3.66645207723329      1.34723595589771     -0.06215603120545
  O   2.93628739843764      2.46385420981746     -0.06310332358639
  C   3.51456787229006      3.75340542936361     -0.06263404949706
  N   2.77372894082347      4.75988741906182     -0.06336710619747
  C   4.96117646805279      3.75536838917777     -0.06127474462982
  C   5.87858952507805      4.77947291837720     -0.06063855572720
  C   7.16563791946279      4.12841527896975     -0.05917367658392
  N   7.08106317665146      2.82104121335968     -0.05905721615357
  C   5.73777774153945      2.55610568505977     -0.06026585579934
  C   5.09627799466354      1.33618029842738     -0.06053119323363
  N   5.77840502647807      0.13536227817981     -0.05939779829926
  N   5.16532120831047     -0.96520249900747     -0.05987707001392
  N   3.83749706293906     -0.97353186054230     -0.06173367860339
  C   5.65961490835366      6.18198572596988     -0.06123572779686
  N   5.53979986138447      7.32394455637491     -0.06250870650938
  H   1.78487747430413      4.51870007354533     -0.06431501548316
  H   8.11824793958752      4.63996352224373     -0.05835826101577
  H   3.42756751048518     -1.89695773200028     -0.06204686374536
