21
Coordinates from ORCA-job 17634optt
  Br  1.39166294778531     -0.32922742477774     -0.07170408374395
  C   3.23801392418643      0.00274376805355     -0.11698562839496
  C   3.70481459275093      1.30360051424329      0.01997410738168
  O   2.99731692456045      2.41235465828631      0.18581727236340
  C   3.89530828659717      3.51556835325433      0.28516435950361
  N   3.52230780989179      4.69429860766744      0.44979859081682
  C   5.22301594165562      2.95083186642416      0.15496199841892
  C   6.40491307337887      3.60470319025684      0.17858189051309
  N   7.67893959055167      3.16680345212133      0.06206435642808
  C   7.97123217078094      1.89321367896596     -0.10906772071252
  N   7.28456652782005      0.75243087341660     -0.21458855787026
  C   5.97414001101224      0.56481775929131     -0.17496104421716
  N   5.02048953763415      1.53777953693864     -0.00998874587780
  C   5.41135726505166     -0.73821915019506     -0.30932527136085
  N   4.09806136827683     -0.96632074602764     -0.27542473279263
  C   6.28216109055449     -1.85403501704552     -0.48985694516516
  C   7.00121946836700     -2.79893250902687     -0.64162638184117
  H   2.51211909533591      4.78865529492137      0.50599749581918
  H   6.29432885335567      4.67777450423023      0.31604407429428
  H   9.04239023799667      1.71669171665477     -0.18416672351830
  H   7.64464128245605     -3.63553292765327     -0.77670831004428
