23
Coordinates from ORCA-job 17638optt
  Br  1.92086572643571      0.20217302123847     -1.47408867954365
  C   3.53125900448775     -0.21895910068140     -0.64480932749367
  C   3.92477643394140     -1.47766863252979     -0.37098686289988
  O   3.15551127115604     -2.55149940390937     -0.69979494107790
  C   3.37427426837689     -3.78337977863803     -0.11486936221458
  N   2.67306802753337     -4.76470799131066     -0.44363820007124
  C   4.46368609614546     -3.86342743260951      0.93421519274903
  C   4.96517593436532     -5.29250017978143      1.12555223471343
  N   5.86700054346887     -5.72204493062928      0.06831481322277
  C   6.34626697274826     -4.87814738280478     -0.72281841527463
  O   6.20226945852810     -3.51911632502365     -0.69373964598471
  C   5.65675104022679     -3.01030512010292      0.51579373521569
  C   5.21183505398777     -1.60427208949525      0.23375955572288
  N   5.96606299602995     -0.61470558808581      0.56567386342967
  C   5.54389344053596      0.67526467947050      0.31269080180764
  O   6.11869274295657      1.67282572358198      0.58601798117701
  O   4.29602205877808      0.81884646137428     -0.34599219234600
  H   1.98003686120317     -4.51149336396565     -1.14670624868623
  H   4.05524025560118     -3.46904157321982      1.86999881899475
  H   5.48819163038199     -5.37314677638239      2.08042397358699
  H   4.12317332419940     -5.98107083096429      1.14481639325811
  H   6.96281438677791     -5.16719023469632     -1.56747776347703
  H   6.42713247213398     -2.99943315083484      1.28866427519155
