23
Coordinates from ORCA-job 17631optt
  Br  1.06847651869175     -0.36508169472221      0.64199245324980
  C   2.90153993767405     -0.24467224759823      0.42252063842000
  C   3.74957258969894     -1.25473339945385      0.34640645125802
  O   3.52059905874494     -2.57497353940068      0.42947922740080
  C   4.71234246522512     -3.25340784362811      0.20222787979481
  N   4.69552578941707     -4.49682684438727      0.24533425326896
  C   5.84224793177152     -5.29192148856881      0.12979756604226
  C   7.00887398812004     -5.20246564703210      0.85530019531683
  N   7.80043868482705     -6.24953650737706      0.47806332487009
  C   7.16442769415350     -7.00250876041092     -0.46507166814722
  C   5.93542845404387     -6.44540542038253     -0.69481695389688
  C   5.75867048063551     -2.21509452935702     -0.14819449388703
  N   6.91827566998142     -2.31702533997551     -0.62454524593308
  N   5.10425373273780     -1.02318143069453      0.11172043557573
  N   5.49563207526171      0.19878515580790     -0.39536740105383
  C   4.64477896509379      1.12318801382673     -0.26809139535864
  O   3.40969764783446      1.04799349283368      0.30267881324983
  H   7.31019894102269     -4.50093091148170      1.61418617410991
  H   8.70935098838184     -6.44664552579072      0.85692814692830
  H   7.63191189275789     -7.87127909050217     -0.89455311961469
  H   5.18112177977294     -6.80000788570453     -1.37592541173369
  H   7.17810342913928     -3.29423495293113     -0.72429283394419
  H   4.87753128501276      2.11796639693080     -0.61977703591611
