20
Coordinates from ORCA-job 17637optt
  Br  2.76327425324734     -1.37475891407045     -2.47028202377710
  C   3.19908203761192     -0.25717296770026     -1.03515018618323
  C   3.24365568938075      1.09191308487765     -1.12635306160334
  O   2.64399983945656      1.80828246256022     -2.16642053696479
  C   1.44387261439850      2.15206490863477     -1.56315584273333
  N   1.08975768228108      3.33067823531383     -1.26942981693648
  C   0.57245610848106      3.19340510259857      0.05219253587372
  C   -0.39729405985569      2.57202621373070      0.76574271983472
  N   0.18066349674396      1.98279210882765      1.90941044671728
  C   1.41152925078240      2.32100874128689      1.83193599530659
  O   1.69912046983520      3.15602972214555      0.84037571432063
  O   2.53194138954442      1.74202919826424      2.35480646690936
  C   3.13259663657725      1.04910141315670      1.29953176860449
  N   3.07177892919412     -0.22359913782605      1.32562662671358
  N   3.38149086800248     -0.86041754322488      0.17457861361222
  C   3.68754177591594      1.79871046444457      0.10553967954469
  O   4.32569146924470      2.80892081543542      0.15561129879690
  H   0.93550646806302      1.26406382567994     -1.17223957288905
  H   -1.42776907761975      2.39937789530957      0.51150362570528
  H   3.35110415871473     -1.86545562944465      0.23817554914786
