20
Coordinates from ORCA-job 17648optt
  Br  2.94454214203027     -1.86815063837829     -1.39874473647829
  C   3.30641202439027     -0.37952939794562     -0.33678323470481
  C   2.45669230689246      0.64588133141173     -0.19968077301584
  O   1.23710123790613      0.68358548446696     -0.78113799614242
  C   1.10255476591840      1.58859906587977     -1.82514723120322
  N   0.58558461680515      2.72270590327374     -1.71237960822338
  C   0.24432207062775      3.24946990810553     -0.48171620258689
  C   0.93958986158540      3.23011201133669      0.68789863371351
  S   0.17150223167859      4.30956728881663      1.85775219836511
  C   -1.13078015239310      4.72569358530521      0.72536212448264
  N   -2.14934854892587      5.45742146016655      0.88665741090674
  N   -0.85739042528205      4.07563131013389     -0.45689206972799
  N   2.16894785769747      2.75725514505239      1.03975154307354
  C   2.81851771153596      1.74005986197864      0.68164308699132
  O   4.05180930329244      1.59605298873209      1.28147733616961
  N   4.89116900229337      0.50668572280478      1.06283868521683
  N   4.53918348180653     -0.39600188603529      0.31659535199701
  H   1.42415280485745      1.19480908355747     -2.78374339873501
  H   -2.19411690384694      5.87255353797813      1.81014066059459
  H   -1.46044538886971      4.19759823335894     -1.25589178069306
