21
Coordinates from ORCA-job 17642optt
  Br  1.23525188694367     -0.08287358957742      0.54826151341771
  C   3.07356629476037     -0.17640230414491      0.26909014046285
  C   3.67820687017785     -1.25452033329928     -0.26260756688914
  O   2.94537925934763     -2.27978889341851     -0.78849248403146
  C   3.01281883565140     -3.54079382654312     -0.20919629766007
  N   1.99266078964709     -4.21797413965257      0.04658402948506
  C   4.37372518305736     -4.01557946594834     -0.05802654873898
  C   5.56974392458982     -3.43773606103266     -0.36630136994206
  O   5.85059933770253     -2.18267877614281     -0.81956354861053
  C   5.11654343354250     -1.13196604213408     -0.39049149017635
  N   5.75958374021885     -0.06119549403285     -0.14105474590223
  C   5.08136027473146      1.07055716970079      0.26814714277517
  N   5.53791011840867      2.22647249471337      0.41416744807978
  O   3.72534889839125      0.92227141559283      0.61079796552538
  C   6.58405482284722     -4.40083649972091     -0.11951001635043
  C   5.91959790087330     -5.49459502940274      0.32539790762547
  O   4.59556278087860     -5.27707322212012      0.37465220567737
  H   1.14497105127979     -3.69139758664922     -0.15895984128898
  H   6.52689559712226      2.22792151647885      0.18164646979918
  H   7.64376543658313     -4.27451008658190     -0.25442889633957
  H   6.25045356324522     -6.46830124608435      0.64188798308184
