22
Coordinates from ORCA-job 17644optt
  Br  1.50930836307388     -1.26491079631244     -0.36914548762619
  C   2.91806790217916     -0.16666550871955      0.15844702165795
  C   2.94384101279023      1.15291741433642     -0.07692038641018
  O   2.02715989824707      1.76298143442003     -0.87704288077193
  C   0.76649946848377      2.26529986841742     -0.45879877874768
  N   -0.30080051230309      1.79706513968390     -0.89025048456308
  C   0.84929935270667      3.51833101536917      0.41068383679647
  C   1.12482258361194      4.77103265643256     -0.43891686059612
  O   2.56016117757744      4.70909425866168     -0.59306107824970
  C   2.94639436512595      3.84028217531836      0.36128325001290
  N   4.17930937647123      3.27916662148773      0.25849668592671
  C   4.14014770504393      1.88104918764063      0.39343944677169
  N   5.15771523365148      1.32013143328049      0.91512571552754
  O   5.15589811351083     -0.04090216925084      1.03865466233652
  C   4.06859118757760     -0.83508723964025      0.78424426854508
  O   4.14392960639494     -1.99664636974075      1.03306919347207
  N   2.07859085215211      3.36660819863398      1.16728461013267
  H   -0.15282900838089      0.97902261808436     -1.48074471926483
  H   -0.05196105434357      3.58812202726885      1.01210053521955
  H   0.85998601397382      5.68005991025437      0.10074870906575
  H   0.67546975499474      4.76108410739122     -1.42791185844322
  H   4.91639860746074      3.70996401698263     -0.27678540079200
