23
Coordinates from ORCA-job 17643optt
  Br  1.30925628342617     -1.28714440337126     -2.10350828928988
  C   2.54968712540696     -0.43772398382383     -0.97782840378804
  C   2.98169882777075      0.81052649401115     -1.20285211127028
  O   2.58590367951552      1.56064922216941     -2.28141432277728
  C   1.35787789692434      2.16563372248117     -2.42304225926747
  N   0.56945405064346      2.64719987656296     -1.57099714576608
  C   0.94226030438706      2.62456441763567     -0.22059252024810
  C   0.39900587437051      1.88803684818330      0.78337363051478
  O   1.22337890368952      1.90409475474576      1.85837944336298
  C   2.29395377506148      2.67782887381823      1.54747512794302
  C   3.60709424853780      2.18997949676151      2.09469018021445
  C   3.78896782337046      1.00815507446794      1.13683437142386
  N   3.44011950277001     -0.15397820341007      1.52289780936561
  S   2.99264163521516     -1.34515850770294      0.44041012030652
  C   4.02257962429226      1.35856286521980     -0.30944247830094
  N   4.96178081229851      2.07855054517772     -0.75501803213508
  C   2.11950432098210      3.22289895036586      0.31395208395593
  H   1.13106378549645      2.23171444198118     -3.48125484053136
  H   -0.50136905368352      1.30511403852692      0.86007698074884
  H   3.54305984843852      1.83861573397075      3.12122524098921
  H   4.37963908700267      2.94928206904278      1.99198980347844
  H   5.57305770965656      2.39944257284944     -0.00255263573153
  H   2.83338393442720      3.81615510033656     -0.23280175319760
