19
Coordinates from ORCA-job 17659optt
  Br  1.06738133488470     -0.37584808340571     -0.07468351302889
  C   2.91767452120977     -0.12553773550986      0.01358992801046
  C   3.75686719145489     -1.17848627337287      0.09259494788982
  O   3.46737326185889     -2.48832827959386      0.11771350583227
  C   4.68720758480723     -3.15642722511855      0.17958543713667
  N   4.65734447366119     -4.41838767430869      0.21090774537619
  C   5.81411369149994     -5.13663073933143      0.14718691513869
  N   6.89623174259212     -4.89411477614296     -0.49732749662396
  N   7.66049654465310     -6.00836997207531     -0.25722291310559
  C   7.03275849527375     -6.92566030713439      0.52414854839497
  O   7.38531641378736     -7.99096947421061      0.93034816925473
  O   5.80916119034551     -6.33862228362203      0.78244559957810
  N   5.73937346149880     -2.26027908419478      0.21470217458031
  C   5.18811585591327     -1.09080317541843      0.16061937172306
  S   5.98881418497194      0.42643125857739      0.16985362700018
  C   4.59975780564701      1.47267418808562      0.05600809016241
  N   3.36465014345560      1.16415454660917     -0.00600212006560
  H   8.57023486665928     -6.11109249232004     -0.66871597571663
  H   4.88012723582551      2.52129758248743      0.03924795846280
