20
Coordinates from ORCA-job 17657optt
  Br  1.20858440994003      0.01239215558854      0.07824517719551
  C   3.05318564285564      0.18791963035218      0.07326804809462
  C   3.69357027919560      1.38103205982028      0.07193377835155
  O   2.98917932776201      2.52716528574800      0.07320355874705
  C   3.60516137074119      3.77505164537157      0.07290055592359
  N   2.91521649792128      4.81347882151281      0.07293187066861
  C   5.10871323661298      3.79995186157192      0.07262543133066
  N   5.67787230528725      4.95182860636124      0.07411006760228
  C   7.08100887043885      4.96671152852418      0.07381878611176
  O   7.70789037797900      5.99600771641954      0.07519958014089
  C   7.78724900109263      3.65270669425401      0.07148476564698
  N   7.19857080263023      2.51832009740477      0.06991723352321
  C   5.81743700792750      2.54689744583778      0.07067013460521
  C   5.10872175021299      1.37360781830621      0.07002187387960
  C   5.70475097106531      0.05992097732897      0.06791074168729
  N   5.06389405981167     -1.04815509169616      0.06838597633436
  O   3.69079010011468     -0.98668189540827      0.07154114254829
  H   1.91801004485993      4.60210124850533      0.07309934893468
  H   8.87264205791502      3.68950275849290      0.07114751118001
  H   6.78255188563615     -0.03775936429583      0.06558441749386
