22
Coordinates from ORCA-job 17663optt
  Br  1.04576361311788     -0.23919097055677      0.08317829297349
  C   2.90902366135777     -0.18596493292799      0.07090739687472
  C   3.67013268407545     -1.30063296850194      0.03655650131079
  O   3.18843343317029     -2.57257301806848      0.00310721599826
  C   4.24233118781058     -3.45791735093761     -0.02930631732777
  N   4.15084380308101     -4.69947286921215     -0.05373865746565
  C   5.57291095655339     -2.68959651118098     -0.00695906901524
  O   6.38808082826697     -3.06143805703283      1.08094499257435
  C   7.20067827183666     -4.11902731792981      0.62963441889856
  O   7.39823031247762     -3.89620465386921     -0.76196197766265
  C   6.43118360016487     -3.08822114667722     -1.22118021719723
  O   6.29622675700601     -2.74964399038881     -2.34935736136639
  C   5.09053330547312     -1.28436949335757      0.03231291762556
  C   5.71964192301660     -0.09271544553401      0.05018509837392
  N   4.97509831745035      1.03703987246713      0.08571780630026
  C   3.56981610479268      1.11366582994545      0.10005445255773
  O   3.03004354907534      2.19443364538859      0.13258422815595
  H   3.18526285491203     -5.02439780112850     -0.03599769186730
  H   6.70875440722113     -5.08299527887012      0.76280351331759
  H   8.16012869636612     -4.06559984280449      1.13659177721910
  H   6.79440548082001      0.02381067676910      0.04278520304793
  H   5.42447625195408      1.94201162440822      0.10113747667403
