19
Coordinates from ORCA-job 17661optt
  Br  0.95783246535407      0.27246455786548      0.03313248345938
  C   2.80743254937695      0.08444438837463      0.03396305114714
  C   3.63628172078608      1.13227708245965      0.03554556309444
  O   3.35643977231418      2.46552803086081      0.03686891915919
  C   4.54191037672187      3.22221563853498      0.03790789048744
  N   4.59120690559192      4.46268801680606      0.03883442470070
  C   5.65617999735240      2.23553097061749      0.03745437443227
  N   6.92040277395824      2.43000945002562      0.03849603788262
  O   7.67654973205215      1.30575678821721      0.03764532246387
  C   7.21581533571597     -0.04225636703059      0.03507031331303
  O   8.04962442308732     -0.88066083657447      0.03370949178229
  C   5.76236773953928     -0.19162127591842      0.03471050229224
  C   5.06061409023557      0.94820165135054      0.03582807899397
  C   4.97209126140816     -1.44041804358597      0.03328152227847
  O   5.43155437790365     -2.54572979429077      0.03253169595588
  C   3.41984110143825     -1.26694012134167      0.03307591840613
  N   2.69379662967327     -2.29740605583063      0.03229894416866
  H   3.66647189691962      4.89111860953377      0.03879139186433
  H   3.28958685057099     -3.13220269007372      0.03185407411796
