19
Coordinates from ORCA-job 17662optt
  Br  1.67717699711204     -1.63992844456927      0.00551512803756
  C   3.00920110170265     -0.32773886651431     -0.02732714131432
  C   2.76011746762225      0.94910341467335      0.30437340617049
  O   1.55173333417260      1.28332145604828      0.82722196075328
  C   0.69686019157682      2.22986435501390      0.28109978530433
  N   -0.52469762654251      2.01720343870891      0.16362553260094
  C   1.32462308155525      3.52402415886177     -0.02083614190952
  N   0.62973706714812      4.59029618022120     -0.26844463820937
  O   1.52586749455869      5.57610599285660     -0.44338066055850
  N   2.78519817558040      5.15320515252910     -0.30928458831954
  C   2.71041715786502      3.87735229841055     -0.04137814824839
  N   3.87578817342452      3.15584363586000      0.09576465886063
  C   3.89117871311730      1.89175709647734      0.21594617274770
  C   5.27578083035551      1.24866989082408      0.23973821310010
  O   6.20684439666756      1.81972058259726      0.71370468019531
  N   5.41195037204091     -0.04272363725679     -0.32706836955703
  C   4.36030022519061     -0.74838440368848     -0.43221951263360
  H   -0.76566091712688      1.06923059918408      0.45237449554178
  H   4.44958376397911     -1.75192290023760     -0.84242483256184
