23
Coordinates from ORCA-job 17673optt
  Br  1.28739249936129     -2.23624537191565      0.33027724196671
  C   3.07730927035327     -1.66765289520063      0.34462469007184
  C   3.46211126977400     -0.56783761549814      1.22756758275900
  O   4.77356184015334     -0.21260110029517      1.19611631147334
  C   5.77005340803504     -0.79773074904825      0.44151346367374
  N   6.95278726576397     -0.39099153392868      0.55644932677708
  C   5.35878116323702     -1.88640034832363     -0.45606602676254
  C   3.97284083882327     -2.26262686442749     -0.45987889568582
  C   6.30445448193545     -2.48122704584044     -1.22399426995519
  N   6.07914222011654     -3.42828849821668     -2.18308503088826
  C   5.68801949879302     -4.61745260251461     -1.97917407145869
  C   5.49547787948478     -5.23884343731457     -0.66860351078770
  N   5.03274981335694     -6.42580618961893     -0.63626114546015
  C   4.78874243880998     -7.11061679230428      0.54134759641394
  C   4.94816987046236     -6.53545939716114      1.73192239039631
  O   5.09674748081514     -5.98555637023334      2.72607738963213
  S   2.47811277063910      0.26072770448878      2.20699409607734
  H   7.01886455126323      0.36280621527677      1.23684828263662
  H   3.64985627832875     -3.05021385123613     -1.12843145377105
  H   7.31984083533408     -2.10091064400627     -1.16403923263330
  H   5.47899361967455     -5.25427440853869     -2.83630625939180
  H   5.75960399845135     -4.65330184297254      0.21736665901762
  H   4.43438670703342     -8.12849636117025      0.50573486589883
