24
Coordinates from ORCA-job 17674optt
  Br  1.55030647100521     -2.29655064972001     -0.30972537195139
  C   3.33600306268369     -1.76206595276645     -0.03711769172366
  C   4.02461747771660     -2.21345840289293      1.04495384114642
  O   5.28015727544278     -1.77058664219743      1.26421688478102
  C   6.06367315492180     -1.24729205775518      0.23921649365880
  N   7.19995253029221     -0.77125460617989      0.48047401206317
  C   5.47609403241673     -1.37393332373500     -1.09221461712496
  C   4.12992765013127     -1.41992582959780     -1.18435968174888
  C   6.30233877815978     -2.04001924637737     -2.13647803261473
  N   6.79499472772742     -3.19356589546627     -1.92592900988760
  C   6.56872161868849     -3.80082745339316     -0.67599896941986
  C   7.76411024286215     -3.95857780392985      0.21066993594888
  O   8.89076371815201     -3.80479841022061     -0.16121183520117
  C   5.35896675757466     -4.23529002295249     -0.29119814183785
  N   5.06920415150717     -4.81968130627780      0.97998428476920
  C   4.17389928151031     -4.32130598500998      1.88825278533963
  N   3.62670811676488     -3.16611645617458      1.94765245596386
  H   7.42759195079317     -0.82238588087074      1.47233930229356
  H   3.65119913782422     -1.50812630061920     -2.15371482340465
  H   6.43632975568857     -1.59634139303722     -3.12000874793365
  H   7.52679745906728     -4.22857725348421      1.25422543604040
  H   4.50991436487281     -4.12839257894199     -0.95748021999293
  H   5.33595459352766     -5.78045953901975      1.12847756761656
  H   3.91977369066904     -5.03846700938006      2.66397414321984
