22
Coordinates from ORCA-job 17682optt
  Br  1.48781997245828     -2.40030404822720      0.34850032450410
  C   3.24003921664243     -1.71675698228598      0.28614123259474
  C   4.16317485179315     -2.14189472753020      1.17193331381002
  O   5.39465658362440     -1.63916962102491      1.17072082339509
  C   5.88107853740579     -0.93915250375777      0.04308232503401
  N   6.88211858547368     -0.20392197259670      0.12541643371494
  C   5.08592626739064     -1.24736212153135     -1.16323585969482
  C   3.74389146472467     -1.24656573480518     -0.99472949613130
  N   5.85544586862040     -2.07257968541873     -2.03553280223159
  C   5.26742811252911     -3.19951711585745     -2.15319345360614
  N   5.95015298648934     -4.42251876900020     -2.09419479681610
  C   5.83240995083350     -4.91602965426208     -0.92205552575194
  N   5.16134467237491     -4.16044509225976      0.04866822758266
  C   4.68327065567841     -4.36034847945768      1.18624451675401
  O   4.09126326379089     -3.32098953381103      1.87403711802284
  C   4.63719783824439     -5.63521327398545      1.99580226323943
  O   5.07916180901295     -6.64940599450889      1.54611216821652
  H   7.27023147229444     -0.19240568733379      1.06723610429843
  H   3.07643626402633     -1.39481351933385     -1.83474828269148
  H   4.18403808525484     -3.32290551290325     -2.09814255172608
  H   6.27378296810295     -5.87523173448760     -0.67233104444266
  H   4.18213057323444     -5.55646823562090      2.99526896192535
