21
Coordinates from ORCA-job 17689optt
  Br  1.02175722036488      1.05261509050279      0.14874122061619
  C   2.80504307660322      0.50069483485208      0.09327545566472
  C   3.16366179674686     -0.80875372596146      0.04399432142593
  O   2.27812747185435     -1.83532463455823      0.04195740675569
  C   2.98460793455193     -3.03139248287061     -0.00260072246475
  N   2.45723867749655     -4.16698024162083     -0.00271785180178
  C   4.41513355168294     -2.71002099585066     -0.04310903736754
  C   4.54044608713076     -1.37679964156243     -0.01458080096145
  C   5.62540303730562     -0.41932457097135     -0.02150372593069
  C   5.19183796340155      0.82506875152101      0.03850728732791
  C   6.19290172309604      1.83206631814390      0.04120226290934
  N   7.38606179328854      1.11346137250577     -0.02224827193048
  C   7.14278584345098     -0.28021073888032     -0.07328971660024
  O   7.98489950471208     -1.12717091208004     -0.14569263642348
  C   5.49181495380969      2.98617076917159      0.10165218202898
  N   4.04725904285389      2.72953584354015      0.13505680137590
  C   3.89520429048525      1.44857962275851      0.09702376055940
  H   1.43985173024410     -4.11218538224889      0.03448689850176
  H   5.18492825601365     -3.46287841645898     -0.08866613489081
  H   8.32568960302718      1.47022485133183     -0.05280366589165
  H   5.81734644187989      4.01262428873617      0.12631496709704
