23
Coordinates from ORCA-job 17680optt
  Br  1.63584781705150     -0.00537738323921     -2.29073456993205
  C   3.08247931281926     -0.06913380138631     -1.10378895731898
  C   3.55699303091314      1.05833219460779     -0.50933705588411
  O   4.72548814964945      1.03576777678409      0.15152585685111
  C   5.53740757850876     -0.11297747092951      0.15222391447832
  N   6.76880912114251     -0.01723198550760      0.36892321326251
  C   4.77748877466615     -1.34498330702922      0.05315021039315
  C   3.57065430833082     -1.31187717619664     -0.54062573675137
  N   2.66275170202187     -2.38395108383098     -0.46810792684422
  C   1.44095716772795     -2.27466354715715      0.16088938117064
  C   0.90328059107245     -1.21377175684056      0.79642757868870
  C   1.58173529678134      0.06039548959831      1.01421427861445
  N   1.05054444356316      1.17037327677039      0.66539873206335
  C   1.79087728327025      2.25370109442134      0.29792102325696
  N   2.90143912099270      2.26276746685477     -0.36165332151533
  C   1.15153836627389      3.53966742858822      0.53027842515028
  N   0.64098834797142      4.54020065123571      0.74936366737470
  H   7.05609660014783      0.95198593951118      0.49249029136016
  H   5.16387603795280     -2.22242997823422      0.55036280940818
  H   3.03473646394902     -3.31303220817617     -0.58312006884979
  H   0.82847006415144     -3.15925705374712      0.03685527133735
  H   -0.15670630174846     -1.24691958735750      1.00905480181550
  H   2.57024672279070      0.03941502126038      1.48428818187049
