25
Coordinates from ORCA-job 17691optt
  Br  1.20603644413436     -0.11441025635086      0.35103884132309
  C   3.07856531214259     -0.06448577948401      0.17112438678637
  C   3.80519310704922     -1.23577146542127      0.15134637076778
  O   3.27115448144153     -2.49398272355695      0.24976769561529
  C   4.29728754191757     -3.41865914003857      0.17457241822592
  N   4.12695331268772     -4.65496037826248      0.21660039893921
  C   5.62109599926901     -2.69098223108892      0.03380222909461
  C   5.19170108143699     -1.25569575678144      0.02333116018203
  C   5.86315588781477     -0.06232394113578     -0.08437946585987
  C   7.30583078352017      0.30656562882955     -0.27868879563879
  C   7.24997958610325      1.82441029456548     -0.04525313782564
  O   7.59045427800053      2.13933477492612      1.31192174401079
  C   8.89487856253309      2.14727174755750      1.58698644637222
  O   9.76219235384120      1.87841716727527      0.80865517914186
  O   5.91555423146290      2.22518564463325     -0.20246876718875
  C   5.12244614714610      1.11498028557443     -0.05925352782638
  C   3.75138766581323      1.15452797600545      0.06425665279553
  H   3.14107113166551     -4.89345767246033      0.31242807523826
  H   6.12311925184217     -3.00505549404375     -0.88216004547881
  H   6.27376690971907     -2.94226736336164      0.87115424693008
  H   7.64520691415884      0.08730205268313     -1.29289208311624
  H   7.99499460496723     -0.16997227001165      0.41618807648652
  H   7.88107191671821      2.41365575096145     -0.70427053015045
  H   9.05689040812670      2.43332786737581      2.63224348356810
  H   3.21301208648800      2.09104528161021      0.07994894760728
