22
Coordinates from ORCA-job 17697optt
  Br  1.32166651567699      0.16101194178631     -0.47191312075764
  C   3.19941160081063      0.10614301633003     -0.29279489045317
  C   3.84134078317403     -1.12581944553077     -0.14472508013925
  O   3.09174446046897     -2.25566283959668     -0.12270719015039
  C   3.75730731858791     -3.43976540158066      0.07252543444309
  N   4.98455299055318     -3.61404921281559      0.20965353587764
  C   5.89761884232553     -2.48744712619188      0.16863652431115
  C   5.21892448497726     -1.15637286193285     -0.01545625993030
  C   5.90223901208659      0.05829341490123     -0.05556401953417
  Br  7.77479887027239      0.01726724413071      0.14912567786557
  C   5.17931727848437      1.23935273478433     -0.20385669720581
  N   3.85172672548025      1.23360458367110     -0.30961994543382
  C   5.82415589925790      2.59254087879560     -0.29415905436095
  O   6.91632600066139      2.80329042182191     -0.72766198672523
  O   4.98704326592739      3.54806625073691      0.16967052755732
  C   5.37196106230808      4.87136845580185      0.05738876731376
  N   4.63772948901214      5.80459488521650      0.43782662460076
  H   3.04708533000784     -4.25722869804680      0.09741864738354
  H   6.61944089979116     -2.65322147297341     -0.63521543916790
  H   6.48274922167578     -2.48114021958900      1.09146832859753
  H   6.35097268848108      5.01430679910304     -0.38528374294191
  H   3.75888725997906      5.45586665117810      0.82224335885019
