25
Coordinates from ORCA-job 17695optt
  Br  1.14762277335141     -0.26347776358815      0.14004331033347
  C   3.01228870375081     -0.16627849448727      0.10418371967840
  C   3.76930012284937     -1.26549374815823      0.17267310428526
  O   3.32067951745617     -2.54104978752578      0.26693943619468
  C   4.39339604853102     -3.42509764540980      0.24788800192264
  N   4.26385348172791     -4.66420319364192      0.29117806002528
  C   5.69218176685019     -2.64747805619826      0.16387857033741
  C   5.19595522852084     -1.23900853369581      0.12012906768676
  C   5.83254864936159     -0.06682389461913      0.07201149709919
  O   7.17539168449552     -0.05952871247568      0.09496162377447
  C   7.81742842702452      1.08624168705619     -0.44807521702013
  C   7.30712064375572      2.28449803798663      0.30495540287929
  C   5.80281641107201      2.37019759500806      0.20752892240407
  O   5.25178729896645      3.43876563220784      0.25718024543996
  N   5.11615104661070      1.14919488949442      0.05087210352336
  C   3.64595943439799      1.14812079772019     -0.05794670476311
  N   2.93917732779171      2.16911857155427     -0.26664849973701
  H   3.28428089689504     -4.93982014571429      0.34232187042796
  H   6.24843963938171     -2.94967228713372     -0.72400204637410
  H   6.31129923452817     -2.86900862714032      1.03379104075527
  H   7.59976192110720      1.15573120250574     -1.51792796653245
  H   8.88310892186030      0.92541223888334     -0.31152869589406
  H   7.70144053747206      3.22479359123165     -0.07474614998485
  H   7.57570846015240      2.20000977527097      1.36081045484364
  H   3.47130182208910      3.02585687086907     -0.33847115130538
