14
Coordinates from ORCA-job 176optt
  N   -3.17929268751110     -0.40234899340846     -0.00000111001530
  C   -2.48172012482688      0.69654708911297      0.00000044640209
  C   -1.05687419368128      0.68909366742455      0.00000070999408
  N   -0.35016615223310     -0.40408273967147     -0.00000144848411
  C   -1.05441834561891     -1.56466069671509     -0.00000191002844
  C   -2.46099011995280     -1.55169626533411     -0.00000115243016
  N   -0.37070838507259     -2.73059098215180     -0.00000226106919
  C   -1.08402240265594     -3.82203201588709      0.00000071419936
  N   -2.44019771480214     -3.92806032611121      0.00000144441918
  C   -3.10887450585083     -2.80918842974133     -0.00000036486688
  H   -3.01932514857355      1.63851568585753      0.00000143113557
  H   -0.51747334338859      1.63121571595713      0.00000152110484
  H   -0.54437422313177     -4.76243177412646      0.00000238428794
  H   -4.19456265270049     -2.84327993520515     -0.00000040464899
