23
Coordinates from ORCA-job 17709optt
  Br  1.25611460432638     -0.15771631755228     -0.45926242683474
  C   3.11161096898579     -0.03296979205156     -0.24677385061799
  C   3.73608093039379      1.14465933078517     -0.08631171582608
  O   3.24152693286288      2.38959190501683     -0.04428911152669
  C   4.32671427559754      3.28306059563797      0.13195949308320
  N   4.17968847937310      4.52615092411705      0.20319732587355
  C   5.54297613631425      2.48752212448028      0.20100927494276
  C   5.16753373997505      1.20011889530998      0.06818533175959
  N   5.81394548024513     -0.01041265367184      0.04052012466600
  C   5.10178132893911     -1.16840945748556     -0.12654458545608
  C   5.88997301518436     -2.44965290165946     -0.11067197861888
  C   5.26671113909664     -3.47946954990423     -1.07074847455203
  C   5.35384778924396     -2.99888433844196     -2.45601621935634
  N   5.45187054600740     -2.57695764966752     -3.51509285066366
  C   5.94155425017541     -4.77307970112229     -0.92243760314159
  N   6.49576692790016     -5.75970628197356     -0.75514792534109
  N   3.82832115571951     -1.21007628608079     -0.26489827858499
  H   3.20333282813385      4.79828352601609      0.11822645347145
  H   6.52122947842451      2.91610323170967      0.32932055620816
  H   6.81878326624790     -0.04824933593713      0.11369926829784
  H   5.88138606888238     -2.86817641687871      0.89742033018108
  H   6.92905874538565     -2.27463481891575     -0.39177681796905
  H   4.20919191258518     -3.59309503173038     -0.81956631999441
