21
Coordinates from ORCA-job 17708optt
  Br  1.47573363214560     -0.04041053199980      0.73770924134571
  C   3.27113231829650     -0.02027314098395      0.24015996990772
  C   3.95852793621237     -1.14852593575904      0.08671733390606
  O   3.50617629176341     -2.41666480893553      0.07786449972329
  C   4.62486602806899     -3.26543446318653     -0.04682277329448
  N   4.53864286863878     -4.51216726355414     -0.11454638176553
  C   5.82086970709838     -2.42601061419511     -0.05634573944467
  C   5.40027846787084     -1.15461342251140      0.02687504249935
  N   6.02274440661320      0.05338767400714      0.18602403743910
  C   5.36439318740882      1.24630101869267      0.30169122954052
  N   6.11415368341997      2.28263462648269      0.46159063639621
  C   5.64481557728904      3.54955092037848      0.65527489258461
  O   6.30048845294503      4.46950429009766      1.04132431435667
  S   3.91374255145325      3.91672615217447      0.25443150091566
  C   3.34104689897553      2.36364373952406     -0.34154825486037
  N   2.39261271062558      2.19689112679696     -1.14509815416963
  N   3.98308744427799      1.21141907390879      0.20854765842395
  H   3.57319362503061     -4.83025380845798     -0.06306670430019
  H   6.81981796144947     -2.82572796263529     -0.07363849696260
  H   7.02531438142510      0.12549484781468      0.28504260574940
  H   1.99436186899152      3.07952848234118     -1.45618645799080
