22
Coordinates from ORCA-job 17707optt
  Br  1.54538077447426     -0.32887377507801     -0.35250615209232
  C   3.38430946857905     -0.09935660913584     -0.17315961294924
  C   3.93966728433194      1.08967775374285      0.09687731437083
  O   3.29441586699754      2.25179387356923      0.27020794187767
  C   4.25722387213876      3.27500580345268      0.36702243239450
  N   3.96799837800714      4.48162740096304      0.51788753467493
  C   5.57171124516665      2.64950203277673      0.26829625532773
  C   5.37783798860552      1.32643977743472      0.14268500118413
  N   6.26634010943072      0.28684850897839      0.01136875707161
  C   7.42434484560098      0.52231586917718     -0.80032791331743
  N   8.50754253332243     -0.10570970284024     -0.72880554567292
  C   8.69641224608001     -1.12544755752440      0.20230202371966
  C   7.77182403473243     -2.00375936635303      0.61213756549337
  N   6.44405504290182     -2.06973369021455      0.20724005101199
  C   5.75283724568350     -1.05072593994987     -0.04990538576459
  C   4.27025717313634     -1.25929303095320     -0.37782696187620
  O   3.87599286592161     -2.33609734709743     -0.72285043534560
  H   2.96151005978052      4.62963735310041      0.56720389116782
  H   6.49340312568801      3.20412488976082      0.32256520742328
  H   7.28557620009710      1.30731071062520     -1.54182892445031
  H   9.72465787595707     -1.26088762924446      0.51163032175611
  H   8.07770176336652     -2.83039932519022      1.24078663399497
