20
Coordinates from ORCA-job 17706optt
  Br  1.23433799492504     -0.14057742177433     -0.49615508860707
  C   3.10271875920316     -0.10896668867433     -0.26018917948420
  C   3.71298311895360      1.07907080794888     -0.14398458766674
  O   3.12774593044981      2.29325479996876     -0.18368280503757
  C   4.13116852197211      3.25209131391648      0.00507882612497
  N   3.92800171062381      4.48578861514494      0.01568350868163
  C   5.39850039602060      2.53014140647964      0.17374587013592
  C   5.13349267896922      1.22283917826132      0.07913035041936
  C   6.01225571323197      0.02699942975064      0.13619001200739
  O   7.19450602333310      0.13921997857027      0.35102926989215
  C   5.31267279468244     -1.24927343650972     -0.09958655058900
  N   6.19118275439215     -2.25664071589592     -0.47922447695694
  O   5.73112524275372     -3.35275251492873     -0.73832752132572
  N   3.90803960993367     -4.62563407776391      0.85358333578124
  N   3.61980766887130     -3.66970106344779      0.38248233793685
  C   3.16597286508983     -2.52921022072825     -0.13724739899828
  C   3.90615597708549     -1.33763089032687     -0.15882777257766
  H   2.94498683829410      4.71261668330338     -0.12989717690595
  H   6.34840843392759      3.01338120176426      0.33593628276437
  H   2.10793696728719     -2.56901638505871     -0.33973723559476
