23
Coordinates from ORCA-job 17717optt
  Br  1.07674073271518     -0.00530131164128      0.02957703229835
  C   2.93991775372004      0.08317931201301     -0.07936268942656
  C   3.63058710274276      1.22594463172881     -0.02906395401113
  O   3.23431853179809      2.50146804647590      0.09301166530317
  C   4.39449314975345      3.31298720506135      0.09775205151852
  N   4.35372511141012      4.56046767459394      0.19643719365414
  C   5.55456252289282      2.43543256527655     -0.02711915983658
  C   5.06924679401384      1.19007124365620     -0.10344602717938
  O   5.68967314727086     -0.00096445907716     -0.22329377193378
  C   4.89623933043895     -1.11162530368383     -0.26619747977233
  C   5.72052068250122     -2.35561296443893     -0.34750763265950
  C   4.86359960818500     -3.57258494321846     -0.67351587939728
  C   4.42056629702864     -3.58491604317497     -2.14110725100096
  O   4.74014890537045     -2.73655964421236     -2.91546683728007
  C   5.57173120409697     -4.82092617338928     -0.39202622252844
  N   6.13849163651890     -5.79550155044902     -0.19004980981144
  N   3.63187808051650     -1.11340889660412     -0.20404314965255
  H   3.39904694130860      4.90510797029765      0.27011814199320
  H   6.57058966097629      2.78641589393491     -0.04758925428396
  H   6.22748647502689     -2.49287470667424      0.61002118849441
  H   6.48947709135315     -2.21814254080160     -1.10863614826906
  H   3.94849553883639     -3.56143029572441     -0.07233848834001
  H   3.78946370152482     -4.44122570994865     -2.43315351787875
