26
Coordinates from ORCA-job 17727optt
  Br  0.66068278946086     -1.49946853127010      0.52106074595571
  C   2.29086052477046     -0.58948840220396      0.82956625944735
  C   2.45061424897260      0.20152696588859      1.91482161652844
  O   1.43742701460289      0.38582097593806      2.82306047997343
  C   0.64731213432906      1.46431576553303      2.43725382460152
  N   1.20894911802376      2.40667718610971      1.86839292967603
  C   0.68129955416211      3.36030249904289      0.94350988703901
  C   1.17074538805322      2.80352083490273     -0.38320092831020
  C   1.87668982097420      3.55763416786179     -1.44366365043212
  N   2.60674262056386      2.69335335984389     -0.53308120443881
  C   3.10608848039810      1.44684721787161     -1.09434274039212
  C   3.94756120756384      0.55733395525762     -0.21019645297657
  C   3.56262447758912     -0.70287458118800      0.10371778980855
  C   4.89246169092319      1.14078327718715      0.77737858910272
  N   6.03552190461076      1.65172615150264      0.76641292996371
  S   3.97748758601019      1.06556895926149      2.35065365414830
  H   -0.40440147319965      1.28295510392407      2.66502770480503
  H   1.13592398120482      4.33316674899866      1.12998487956871
  H   -0.41075843289524      3.45746271989647      0.94755116509180
  H   0.60255804569418      1.93513079597409     -0.71351613795952
  H   1.73585432441049      3.21960624785370     -2.46635151819570
  H   2.06522188914201      4.61763110944086     -1.32618745817859
  H   2.30360118807079      0.82416339737803     -1.51467259120278
  H   3.77064436047118      1.70308323624773     -1.93088120262120
  H   4.28507376761428     -1.36697586921228      0.57257168341870
  H   6.43421378847887      1.64219670795950     -0.17187025442141
