19
Coordinates from ORCA-job 17721optt
  Br  7.93877880726916     -4.22171128326072      0.40236351347015
  C   6.97816865120230     -2.63254241212682      0.14620296735276
  C   5.63343097771531     -2.60104767213976      0.09073071825195
  O   4.92444725382328     -3.76345920062756      0.20866759535699
  C   3.60661658026549     -3.76674234740596     -0.05418455059295
  N   2.89494559673948     -2.77204144312731     -0.38726076763575
  C   3.53759925975379     -1.54222858002020     -0.41950404345890
  C   4.84715783183745     -1.41118030655791     -0.15155355197389
  S   5.50652770964116      0.23293690710544      0.02508830173764
  O   4.96426384317536      1.03916508202933     -1.02234213842385
  O   5.31898959048301      0.60996281320854      1.39346320711841
  C   7.18781388838463     -0.13429263298556     -0.23223216980862
  C   7.69232696255499     -1.40621292760174     -0.07619695993352
  N   9.01250500460155     -1.21943896578282     -0.24720171974420
  N   9.30124685942696      0.06876521201633     -0.48873982502843
  N   8.20058484797442      0.72922263870724     -0.47824046097296
  H   3.19285897981510     -4.76079971830001      0.05855412362326
  H   2.92440804405709     -0.68091141690260     -0.65413638037242
  H   9.74832931127945     -1.90944374622789     -0.22247785896565
