24
Coordinates from ORCA-job 17728optt
  Br  1.27293575275082      0.13597187847356      0.22694636359172
  C   3.10183912657106     -0.08424834247664     -0.02577355838593
  C   3.71699855624936     -1.27434000292311     -0.09620131290382
  O   3.09569843808084     -2.48491715891438      0.02285750500591
  C   3.84596604182995     -3.60791908239862      0.33025135817542
  N   3.31393904033883     -4.73976288143703      0.34777733560557
  C   5.31404824281599     -3.43069854738525      0.67367594792255
  C   5.98803376642089     -2.44475098716124     -0.29162883096166
  C   7.34480719331664     -1.80069904731065      0.13108727497304
  N   7.22175732703286     -0.34808685810675     -0.13594107573930
  C   5.84100523315848     -0.10204612005685     -0.22768916943450
  C   5.12040352187437     -1.22405176235180     -0.26949145274636
  C   5.16904261794815      1.18498097111696     -0.14981961069136
  N   5.64245855757605      2.34873443791148     -0.11418568340852
  O   3.78361537177646      1.07504332635564     -0.13118172183179
  C   6.06355143812610     -3.01177144251064     -1.64722789071341
  N   6.15402351778865     -3.44187352967738     -2.70558601452947
  H   2.32127151180790     -4.68822654996511      0.11944577426398
  H   5.76437879975351     -4.41967090154801      0.66934802766733
  H   5.38745709082492     -3.00867220506501      1.67989081080653
  H   8.19794265739432     -2.22739510712499     -0.38908765297619
  H   7.47362455424091     -1.94268789674569      1.20557985038872
  H   7.76081085332595     -0.02195731527551     -0.93043750557168
  H   6.65839078899693      2.31604512457703     -0.12860876850678
