26
Coordinates from ORCA-job 17732optt
  Br  1.02549900726566      0.19979659496654     -0.96887164447866
  C   2.84484493763562      0.10862790028413     -0.48781336473047
  C   3.51360477408128     -1.10550124761259     -0.35278005257696
  O   2.85272133864402     -2.28221830443464     -0.62536443550101
  C   2.06314688961777     -3.10422059125627      0.24828716561813
  N   0.82060772087812     -3.06249126553280      0.23943540938139
  C   2.84558277685007     -4.12191570229388      1.08387480092670
  C   4.17916013976676     -3.45214468785230      1.26360573478472
  C   5.45604481773460     -3.55180108069341      2.09627066427891
  O   6.20679448046433     -2.45422396214654      1.49148585557908
  C   5.79694872710478     -2.26111025501920      0.12064232162070
  C   4.92046390779061     -3.46070681862064     -0.06839659564865
  O   4.91396730722181     -4.30828054073979     -0.90646325328731
  C   4.89965372844689     -1.04025595422758     -0.07421554834474
  C   5.47705577253462      0.21324921783959      0.06504493230490
  N   4.82385066493836      1.36452627200213     -0.03517874265426
  C   3.53197593116942      1.30478056923497     -0.31027671330901
  H   0.46194314305537     -2.34860273864642     -0.39110042599505
  H   2.92187903136802     -5.05509978232815      0.52332247107704
  H   2.28110648098408     -4.29860684242355      1.99578061170626
  H   3.92470807630509     -2.42285082992153      1.50535510895191
  H   6.00138155688322     -4.49133724751900      1.98415297811829
  H   5.33183866672028     -3.31127476788928      3.14835328614967
  H   6.68248575351120     -2.21533657414724     -0.51024765837266
  H   6.53826188374257      0.27436515628757      0.28410747534958
  H   2.99947248528539      2.24363348268993     -0.40801038094849
