28
Coordinates from ORCA-job 17734optt
  Br  1.15433106927740     -0.13300080572826      0.45755754554239
  C   3.04227280753285     -0.13746266873476      0.30597704481879
  C   3.69263775800433     -1.32874808576966     -0.02891642309544
  O   2.92800851916605     -2.42018776933335     -0.29595362406598
  C   3.49821512452629     -3.67429773978115     -0.38769763459313
  N   2.83076130638102     -4.64186118766987     -0.81839262354408
  C   4.91296213920458     -3.77926737222807      0.08224691316960
  C   5.77099985050712     -2.62794637024251     -0.45419215702177
  C   5.93500649403131     -2.74549643570001     -1.98266697053784
  O   6.64398790274888     -3.91945459051800     -2.30941193411300
  C   7.89815946752069     -3.95094906788181     -1.69385017951795
  O   7.80030697627215     -3.92243214497641     -0.29763353472015
  C   7.18142970908088     -2.73131918307724      0.13780448269052
  C   5.08251277434216     -1.33107125294469     -0.11064514375172
  C   5.73563018100072     -0.12298629852549      0.11932037553575
  C   4.99538819003106      1.00408671064117      0.42638662998300
  N   3.66790385732423      0.99015492393436      0.52363746603013
  H   1.88361161384271     -4.35384856134289     -1.06451416686500
  H   5.30500057031399     -4.74231607948895     -0.23101242326761
  H   4.91433609527683     -3.74101431007724      1.17649174781999
  H   6.47243124090633     -1.86112500696672     -2.35201924240201
  H   4.96891120457989     -2.80355008725278     -2.48530653937670
  H   8.49724052465196     -3.09001276676394     -2.03224468677715
  H   8.37329537178523     -4.88779894701340     -1.96883177972044
  H   7.79213821878427     -1.87658174812023     -0.17733828015286
  H   7.15024680578873     -2.75681696830808      1.22741194662232
  H   6.81205940476447     -0.04836738551479      0.06190355121198
  H   5.47821482235377      1.95667119938478      0.60588964009837
