22
Coordinates from ORCA-job 17731optt
  Br  1.22259691141179     -0.25523132807680      0.05582381718642
  C   3.04101345375451      0.08962724099738      0.05889328342627
  C   3.62038570856434      1.27948144959334      0.05930297349854
  O   3.09322078087120      2.52333745369153      0.05785535504050
  C   4.16701692915291      3.42556553760364      0.05977672732680
  N   4.01574537075162      4.66824663142091      0.05942826180873
  C   5.42798629684302      2.65847696237696      0.06222413309664
  C   6.74708370940242      3.24183081426276      0.06455862873722
  C   7.95639953354436      2.57111909022390      0.06646897688664
  N   8.90821187506643      3.51830847021537      0.06825657351629
  N   8.41928732067731      4.76198859136969      0.06771527727382
  C   7.10942412180244      4.61280403124082      0.06532311748362
  C   5.04734435326087      1.37047663444092      0.06186505290206
  O   5.79323856351018      0.24322591711346      0.06363287486948
  C   5.18170978716180     -0.98905247060691      0.06374172139596
  N   5.81667908595551     -2.05919998669167      0.06635021870477
  O   3.82523492871876     -1.03557761699885      0.06089610659552
  H   3.03134382252325      4.92799835129609      0.05755154307592
  H   8.18966711073488      1.52015606172325      0.06669529684038
  H   9.90478680815755      3.38455808504621      0.06987418207148
  H   6.45288067574527      5.46580622870435      0.06436209805974
  H   6.81774285238954     -1.89194614894634      0.06840378020322
