26
Coordinates from ORCA-job 17749optt
  Br  0.97466016825603     -0.33387616162576     -0.13985902772660
  C   2.84633761051410     -0.19382241039263     -0.05161198913085
  C   3.61583133846058     -1.33105784505743      0.16423251120716
  O   3.00030394976887     -2.53757390871612      0.36545172709029
  C   3.21114690377984     -3.48246608725404     -0.64552204325547
  N   2.47415438084288     -3.57309964565583     -1.65067417394254
  C   4.39083250614960     -4.36579429030018     -0.39060158946726
  C   5.71781537674704     -3.59782417232784     -0.50142099060275
  C   5.87221390789287     -2.42982942115792      0.47766678239194
  C   4.99982098195431     -1.23438578171749      0.20219592034554
  C   5.54021831431175      0.03263864406836      0.00435144812532
  N   4.82820265506742      1.13005590580455     -0.18338686419362
  C   3.49718487350253      1.03360985347596     -0.20865487183458
  C   2.75651560165156      2.24421966246910     -0.41228806497713
  C   2.14184671492691      3.25790864502041     -0.57914988970321
  C   5.97190464195093     -3.17336022295924     -1.93431975404413
  O   6.46049387630218     -2.12364227116056     -2.24132573219110
  H   1.73726025006103     -2.86612058842893     -1.63338603062658
  H   4.36425556217563     -5.18249761377512     -1.11073251911767
  H   4.30320213157030     -4.78172111662801      0.61490935029853
  H   6.50815337309258     -4.32639386029833     -0.28102198918831
  H   6.90980765870904     -2.09713454483263      0.46043166725126
  H   5.66304395547197     -2.79981237455041      1.48558394204380
  H   6.61853648396659      0.15241145419946     -0.00073674813187
  H   1.59867824882044      4.16040002690414     -0.72783266957686
  H   5.68757853405296     -3.91583187510346     -2.70529840104329
