24
Coordinates from ORCA-job 17741optt
  Br  1.29637644821144      0.06883078179928      0.39726265167096
  C   3.17264922455249      0.00926090139068      0.28986196533918
  C   3.89569774093448      1.19876225181861      0.36620531822265
  O   3.19535518678161      2.35748144760685      0.55191310791334
  C   3.79165821248628      3.58592273978218      0.35311791078985
  N   3.19241917372416      4.63838029420103      0.67333207022848
  C   5.15296259554631      3.56346655378928     -0.27168431273044
  C   6.02278652633648      2.48660455992057      0.37156505778544
  C   5.28901247273196      1.18140072876857      0.30458848649784
  C   5.90877210222642     -0.04828099617873      0.15839780004594
  C   7.33309471547456     -0.40006744234933      0.04169370217888
  O   8.31477778189433      0.28347941119019      0.05945885373785
  C   7.35054487504561     -1.95693822381967     -0.12689630214350
  O   8.30892387228482     -2.65601972770442     -0.26533501366030
  N   6.02701523747850     -2.33470933872616     -0.08054073986099
  C   5.17509150440840     -1.23555103234672      0.07710256419961
  C   3.79859124668876     -1.22674100034086      0.14430480942304
  H   2.27598536857498      4.43186101334971      1.07062145059861
  H   5.57904965855013      4.55766681128748     -0.17319917032943
  H   5.03585953323903      3.34385766407019     -1.33695059286710
  H   6.22004130030953      2.73702394757743      1.41841959930240
  H   6.98921877456197      2.40211678132949     -0.12116324724370
  H   5.72572748454206     -3.29068093964751     -0.17708100024305
  H   3.20938896341562     -2.13112718676816      0.08700503114444
