23
Coordinates from ORCA-job 17742optt
  Br  0.97705909913450      0.08490752582461     -0.05648677654473
  C   2.85583657265815      0.00287884305251     -0.05433787854614
  C   3.58054583794542      1.18122128524268     -0.05347075855990
  O   2.92638709565878      2.35963957861255     -0.05367255510638
  C   3.59339444788435      3.57370654865105     -0.05288998890645
  N   2.94574562014713      4.65214764349505     -0.05291970559551
  C   5.05173858075896      3.52656522785414     -0.05199646055151
  C   5.71295418731080      2.36665456705537     -0.05178767950122
  C   4.98212239415199      1.11470434573440     -0.05245847522375
  N   5.63838138655351     -0.03506382371683     -0.05216042234205
  C   4.94658646235026     -1.16255840559021     -0.05269299389409
  C   3.54049760460351     -1.21591534022188     -0.05373820362176
  C   2.89898632243570     -2.50991374589718     -0.05405478861392
  C   3.65559410728614     -3.60661422192404     -0.05335030466277
  O   5.00381885314466     -3.60080032209187     -0.05245060155278
  C   5.73253698115391     -2.42454703012069     -0.05218734101610
  N   6.98566797098020     -2.45791835326903     -0.05164598062406
  H   1.94099503166996      4.48360502095917     -0.05357160744502
  H   5.54450496277724      4.48764272613353     -0.05148526234993
  H   6.79336063821430      2.30878248402958     -0.05109950392584
  H   1.82450630025309     -2.59967939745186     -0.05473364293856
  H   3.26473626340239     -4.61371195968836     -0.05339183570302
  H   7.32104327952504     -3.41973319667270     -0.05141723277451
