22
Coordinates from ORCA-job 17744optt
  Br  1.46952139012787      0.19425601011629     -1.44193525946797
  C   3.08565393885089      0.03361976897020     -0.54332907104937
  C   3.51968860034691     -1.12432715698532     -0.03009984148657
  O   2.72602267195737     -2.23160291353132     -0.06492428741206
  C   3.12316738786082     -3.48233365990048     -0.48248396999772
  N   4.24928240428088     -4.03438793460250     -0.48996684614456
  C   5.47900245502458     -3.45870604114733      0.01964068083908
  C   5.31988463177344     -2.45358684691576      1.17291684831683
  C   4.78835233434705     -1.15091738437051      0.67251681317439
  N   5.51280612031245     -0.11613154964729      0.84990955824186
  O   5.06728215667982      1.07860674659525      0.35771133375933
  C   3.91750893422341      1.23033418991061     -0.39075644429755
  N   3.62022614011071      2.34463357591855     -0.88469215507171
  C   6.23015150399198     -2.85525583492225     -1.09557415846667
  N   6.79772926024397     -2.35179152668552     -1.95323759850908
  C   1.96397341716896     -4.21054670612544     -0.93054579097578
  C   1.00215688018925     -4.81389744352619     -1.30425606104710
  H   6.07445055764959     -4.30003905551572      0.37952988076563
  H   6.28345861406674     -2.27454503089908      1.64636539438891
  H   4.64048264891483     -2.89398314492128      1.90618494690335
  H   4.32876295743334      3.04396640946001     -0.66949417829468
  H   0.14943499444507     -5.35636447127489     -1.63947979416855
