24
Coordinates from ORCA-job 17748optt
  Br  1.20411543105219      0.20652036091054      0.56945455411623
  C   3.03439503938334     -0.04229660927042      0.33533981628683
  C   3.59743259698738     -1.24807515607843      0.16631007216362
  O   2.82056283540818     -2.37521397087172      0.13820095397834
  C   3.41848418731205     -3.52085253209094     -0.28008325735527
  N   4.63777922719805     -3.74505839804016     -0.46259101791801
  C   5.61476269355949     -2.70785237336746     -0.15181744738382
  C   6.72374316608118     -2.74103912609477     -1.10929652922792
  C   7.63576841538151     -2.74995868545099     -1.88215933029899
  C   5.01654971822455     -1.31856435093634     -0.03157569482650
  C   5.73554188760261     -0.18513770335973     -0.06922702331426
  C   5.10982425821549      1.11275713353373      0.12141832754937
  O   3.73489407707313      1.09034313274906      0.34920495568305
  N   5.62117584011193      2.26066951092717      0.12439464883938
  C   7.05266652020519      2.35961392984731     -0.09839742134546
  C   7.50127351310578      3.75239002240964     -0.09608809720383
  C   7.89867699586857      4.88054247069496     -0.09751255217499
  H   2.67180350660437     -4.28888540146275     -0.44621029289198
  H   6.02989415694555     -2.96534685424793      0.83098389578501
  H   8.44568919529457     -2.77235089120503     -2.57198376171016
  H   6.80124123333938     -0.22024453616270     -0.24558890657314
  H   7.33527069254217      1.91193177538109     -1.05875938906829
  H   7.60896735690552      1.82122205143679      0.67867228522804
  H   8.23948745559773      5.88788620074909     -0.09768878833724
