31
Coordinates from ORCA-job 17757optt
  Br  1.33002774454738      0.43752242415419      1.47906419250007
  C   3.02438195147728      0.19714790340378      0.69758965555492
  C   3.21898481178953      0.47381694112889     -0.60554546612692
  O   4.44237978411234      0.34033952109815     -1.15195076765159
  C   5.46987723075095     -0.34469884783350     -0.52570740697372
  N   6.63575577446564     -0.32066799931799     -0.99915662271182
  C   5.06467775115344     -1.11000217018681      0.65146162632764
  C   5.71731578671553     -2.44230493358100      0.84492563037747
  C   4.89106344826455     -3.53184124631630      0.07797709868474
  C   4.42055427909120     -3.12840141980112     -1.35231978402261
  C   3.01121551342576     -2.50246361569027     -1.35898246974794
  C   2.68549224875785     -1.53057674706659     -2.51326400981569
  C   1.70521576858355     -0.41258141488287     -2.13653725654537
  O   2.30594662517746      0.76966890724322     -1.52431007023527
  C   5.66659600783505     -4.77104380170937      0.05883929435429
  C   6.32518549743390     -5.77233530710182      0.04614665921602
  C   3.97451179612866     -0.69363751924508      1.32101818568634
  H   6.69271185208448      0.26688530950046     -1.82847904200824
  H   5.75375296921674     -2.72158218457279      1.89802558413229
  H   6.73404981151871     -2.42230772363809      0.45709071860563
  H   3.98893581057899     -3.72160267527736      0.67047584041899
  H   4.42448970307906     -4.02173129844348     -1.97697997503958
  H   5.15498829580115     -2.45218164771088     -1.79257555549450
  H   2.84974845782580     -1.99486114701564     -0.41336768848818
  H   2.27554269152926     -3.31074704520156     -1.36602408354600
  H   2.22470045230523     -2.07975729005849     -3.33692794955978
  H   3.59394838590773     -1.08313761825018     -2.91975870274497
  H   0.94365288782261     -0.78529713758565     -1.44601000171752
  H   1.21759116483135     -0.00900267291906     -3.02005842098759
  H   6.90657905420384     -6.66301008713596      0.03550768925369
  H   3.66512644358493     -1.19360745598684      2.23183309830521
