27
Coordinates from ORCA-job 17759optt
  Br  0.36137450325736     -0.42507383864499      2.22522282423002
  C   1.91043748643186     -0.17572116079300      1.16995241021791
  C   2.85360680684873      0.72980031755045      1.51775361520027
  O   2.63381931030387      1.62430377644936      2.53307955098191
  C   1.73813168544288      2.59414145199084      2.11594541022084
  N   1.72690940099556      2.92465941676526      0.91904907483293
  C   0.65298129441137      3.64007195984108      0.27036436176079
  C   0.43252649563543      3.01386466738685     -1.12494231031857
  C   0.69652822254279      1.49612602240627     -1.16967344511494
  C   2.18263746144919      1.19157188831684     -1.42968728939020
  C   2.79714930408042     -0.08557038738758     -0.92451779830403
  C   4.28844316789977     -0.02360776130292     -0.85532511703873
  O   5.21030179021449     -0.35307225778893     -1.51021122125283
  S   4.49347385086279      0.88305354761368      0.77978883547126
  C   2.29408199570401     -0.96142462264308      0.00110405242741
  C   2.84069395756008     -2.25714796936852      0.20199480922332
  C   3.28153699379890     -3.36351281122674      0.35876851188267
  H   1.09829111092665      2.92218064695341      2.93535353775418
  H   0.92091043768125      4.69276890720079      0.16134102973257
  H   -0.26923293999745      3.58702011695431      0.85886730192294
  H   -0.59135803606533      3.22580501767684     -1.43658482594094
  H   1.08567768578870      3.50623179587720     -1.84988128305092
  H   0.10061065314485      1.04817455907408     -1.96598056650991
  H   0.35126122956254      1.04651035204502     -0.24031161714115
  H   2.34571298504033      1.15131652859762     -2.51570604264347
  H   2.79764455100673      2.02611052260728     -1.08428697308518
  H   3.67684859547219     -4.34158068615144      0.49652316393185
