27
Coordinates from ORCA-job 17753optt
  Br  1.37437410024107     -0.72353010396992      1.78972412688402
  C   2.63744849684898      0.31009969093844      0.83605608253212
  C   3.30528722535820      1.28117734323353      1.50034643524521
  O   2.79023584747890      1.85662118614806      2.62686022700913
  C   1.63008989014023      2.60149065130732      2.29346389908504
  N   1.16300690017923      2.49242765370487      1.16235249838820
  C   0.14033665279742      3.07877433010019      0.35980819882394
  C   0.66904224277833      3.10102314162366     -1.09421288466189
  C   0.66283922205629      1.77882271706550     -1.87847656998364
  C   1.10835763682962      0.47838753108839     -1.18671300489165
  C   2.50351374524993      0.53705954529181     -0.60025681373346
  N   3.44262609406727      1.02482635386327     -1.32644326928894
  C   4.68165316406896      1.28893786912368     -0.77102697403463
  N   5.81979207889408      1.12728015472904     -1.28230624731669
  S   4.60313649022986      2.16973464480901      0.79628377044217
  C   -0.08640182674036      4.16861547002358     -1.85616483199923
  O   -0.72257129192532      3.98590975615411     -2.85425209311992
  H   1.33968695892492      3.19635143459665      3.15773334358455
  H   -0.14001649326019      4.08741236040412      0.68582767463682
  H   -0.75347376759400      2.45055178680015      0.41615333402982
  H   1.69744049250448      3.47713622362651     -1.01655788135363
  H   1.27737876069104      1.93434150664608     -2.76566863940968
  H   -0.35312135683344      1.60909409523473     -2.24113604327883
  H   1.07621470867163     -0.31857185412452     -1.93339024380960
  H   0.39546808630005      0.21086440981653     -0.41240267610679
  H   5.72225021992444      0.71914641335727     -2.21339385787433
  H   -0.02159427788167      5.18301568840789     -1.41220755979811
