28
Coordinates from ORCA-job 17758optt
  Br  1.22869443668789     -0.19591180291443     -0.86465088817440
  C   3.08308999181328     -0.13554392748905     -0.59558840634505
  C   3.76309323465914     -1.14328080328169      0.00854938819179
  O   3.06281842302432     -2.19601170681204      0.49155321019852
  C   3.32762175321944     -3.54294580748441      0.37504111069825
  N   4.37994707921474     -4.13919809604614      0.08461510779842
  C   5.60888043933503     -3.42958444344456     -0.20147096212390
  C   5.88918735212433     -2.19680684468783      0.65568528011554
  C   5.75464927579737     -2.42755418918267      2.16168811033416
  C   6.60056172652668     -3.60764916946373      2.65177211876089
  C   8.00690220927821     -3.45935561135976      2.28395832450399
  C   9.14526097346253     -3.29324934197729      1.94965244333980
  N   5.10290571740448     -1.03998529271368      0.21808188794225
  C   5.76760212872623      0.21651914609833      0.01706905214099
  N   6.90729697299579      0.50605909524029      0.49206887397137
  N   5.10490552728229      1.13488019364559     -0.78303653413496
  C   3.85844022755146      0.97179882504975     -1.04578074748930
  H   2.41503370313389     -4.07570901416889      0.61708916344214
  H   5.62384305122555     -3.13965083867074     -1.25530364805145
  H   6.43167788112006     -4.13114072441580     -0.06092250476468
  H   6.92525562374042     -1.93821404219001      0.43895811790279
  H   4.71208122696420     -2.60936896721466      2.42533770320966
  H   6.06202327478767     -1.51444689332907      2.67575108538872
  H   6.21169290566873     -4.54154926567721      2.23738562983384
  H   6.51675339878489     -3.68636331304070      3.73673692917742
  H   10.16175323423106     -3.15620829064355      1.66613695055275
  H   7.28582619697811     -0.19738487758761      1.11663360668282
  H   3.37020203426208      1.72585600376163     -1.65801040310237
