28
Coordinates from ORCA-job 17768optt
  Br  1.67123356148284     -2.17076534553352      1.36658980561636
  C   3.50142009292412     -2.00751279922477      0.95425123094960
  C   4.44067913336905     -2.47219141641561      1.79665852590575
  O   5.74610513261896     -2.22723922127295      1.54763747397354
  C   6.14254317118690     -1.73918738206868      0.32672912781063
  N   7.31695233747609     -1.34343172883454      0.11125035843044
  C   5.07383202016277     -1.78206929095738     -0.69202722868845
  C   5.48013984428899     -2.16607443113720     -2.07649574597309
  C   5.38985663071737     -3.71334668044521     -2.18028046486213
  C   5.87513109708662     -4.51171398953686     -0.97041703372019
  O   4.86204150965885     -4.48000734956045      0.03315473833549
  C   5.18088058290216     -5.09635981420112      1.25761085398407
  C   4.14312681632082     -4.68947813912377      2.31253318527303
  O   4.29325112375429     -3.33859575230775      2.80133166217023
  C   5.13445144773861     -6.61407489933161      1.11237135223877
  O   5.52268640151499     -7.36741470142400      1.95591030886187
  N   3.84257142923991     -1.75056399577933     -0.34586352587036
  H   7.89001046506409     -1.39311224814055      0.95193069735705
  H   6.49476655107879     -1.82512742282123     -2.27258823603660
  H   4.80203305802473     -1.72288609803252     -2.80384197469823
  H   5.95746123842564     -4.03636261505398     -3.05428896321656
  H   4.34731768467288     -3.99217069935811     -2.34461008098901
  H   6.81092317435962     -4.10804222316893     -0.56425546814103
  H   6.06282640063681     -5.54891076302189     -1.26999290048942
  H   6.18309906001172     -4.81192003318408      1.60340573869598
  H   4.25342672863098     -5.32508716169836      3.18750775061802
  H   3.14152336872234     -4.79814335260001      1.88833983968306
  H   4.68870993792897     -6.97421044576550      0.16444897278116
