29
Coordinates from ORCA-job 17760optt
  Br  1.39122930030775      0.50027348246574      1.51142709636628
  C   3.07113068948735      0.23473706802448      0.70376386871737
  C   3.22099073801966      0.40179497524456     -0.63421809030944
  O   4.45169329209018      0.25775667763064     -1.17994845994090
  C   5.51261138468122     -0.31020647391976     -0.49924650167300
  N   6.68659481917219     -0.21491077761379     -0.94356411803800
  C   5.11471874489915     -1.07721333950391      0.67455441259350
  C   5.74044555473658     -2.42730638875933      0.82461761168289
  C   4.90941482780071     -3.46403109615457     -0.01167513383212
  C   4.45564605135478     -2.98926888744233     -1.42846304235302
  C   3.02322443354875     -2.42539026337254     -1.39391312519237
  N   2.61113134545684     -1.58776478061877     -2.52578475012181
  C   2.11851339939784     -0.31900638003018     -2.47960669663807
  N   2.26653162527477      0.60130500687018     -1.59551931127460
  C   5.65983481081170     -4.71644811075229     -0.08374252690864
  C   6.30163099544921     -5.72736227992313     -0.12929601326385
  C   4.01463178486581     -0.65630950195194      1.33073568940522
  H   6.71877714660453      0.34492489863480     -1.79356595617811
  H   5.74764892083996     -2.76123235956297      1.86218941422106
  H   6.76588993991823     -2.41153029188709      0.45948888184174
  H   3.99843776858536     -3.66722373740811      0.56391469157415
  H   4.48257894745484     -3.84658010092968     -2.10156190621039
  H   5.15553457048476     -2.25859878171544     -1.82980292046092
  H   2.86116679856138     -1.85570001933614     -0.48812827218195
  H   2.32658028646270     -3.26643042797210     -1.33901070974225
  H   2.35217205322670     -2.09143875668786     -3.35861745547330
  H   1.50510684103747     -0.07152884227735     -3.34306849685700
  H   6.86901073174439     -6.62648287134633     -0.16539700453572
  H   3.69612219772509     -1.15182763970473      2.24143882478323
