24
Coordinates from ORCA-job 17761optt
  Br  1.78197130792471      1.81048727949497      0.39535201129368
  C   2.34857216204005      0.10782716911689     -0.15661188690652
  C   2.04596036819381     -1.02535383614663      0.51584805077117
  O   1.54870315263790     -0.84747695240665      1.78452761987731
  C   0.18334926898077     -1.06139230410962      2.05861578608442
  N   -0.53818745568247     -0.19369681628138      2.58833488339756
  C   -0.10497601441231     -2.42989329424215      1.65943539048515
  C   -0.78374979856976     -2.77030615845520      0.56895314078423
  C   -0.40723931924212     -4.04054315204632     -0.02517402483595
  C   0.90049109476031     -4.30806626649851     -0.23681356354888
  C   1.24732318655690     -5.69219102166347     -0.72313943317310
  O   0.45421004057223     -6.58478704860683     -0.83841520104529
  N   2.00200688555087     -3.48581282866495     -0.26474596011156
  C   2.47107747226299     -2.31399055331019     -0.14708844933903
  N   3.68847430587312     -2.13746946492374     -0.85350167785537
  C   3.95254946829086     -1.02746519086988     -1.40803235796540
  N   3.18725584793177      0.09652010568259     -1.23858519980548
  H   -0.02743001942201      0.68120098848015      2.70828390879465
  H   0.58029154687088     -3.15518044771817      2.08608080260220
  H   -1.48788672750110     -2.09475760316800      0.09424285957480
  H   -1.12588151112025     -4.79920910405292     -0.31293246885977
  H   2.31621332121479     -5.81690398081844     -0.97028379699057
  H   4.82755518421276     -0.91277846206925     -2.03887801583419
  H   3.40634623207528      0.95923894327773     -1.70947241739405
