25
Coordinates from ORCA-job 17779optt
  Br  1.33888425580025      1.49027091237603      1.02491311604408
  C   3.08094857448138      1.12922462889407      0.39541458545394
  C   4.19139766843676      1.60313577164695      1.00810955500580
  O   4.15696869441975      2.65475284341072      1.89089353016645
  C   3.68112107434058      3.88560047986015      1.47331593281113
  N   3.67031002225519      4.78901567101247      2.34378695027326
  C   3.18093356471414      4.01636446635822      0.06555368367369
  C   3.87294434096496      3.61911953093504     -0.99830510407422
  C   3.25460964788148      3.32708526862906     -2.31089807838453
  N   3.55950866802936      2.31260919720126     -3.02024605550471
  C   4.57684322594998      1.49390370209005     -2.50072898775031
  C   4.45853933120327      0.67564832523335     -1.45259242814669
  N   3.19081088630992      0.50650463263234     -0.80605706512545
  C   5.59567427071150      0.38588472033629     -0.54634224121567
  C   6.81937938981254     -0.33428133267833     -0.93776588807921
  O   7.80254189452424     -0.42592012825041     -0.24830417841589
  C   5.45268918169492      0.99121335059494      0.65792715762871
  H   3.30250935858483      5.65414676621602      1.95749022220559
  H   2.14964039340586      4.34314908997258     -0.02685906188277
  H   4.89200365930447      3.27539005064594     -0.85986960927790
  H   2.44455824901386      3.96609182659979     -2.65905939304287
  H   5.55658550433962      1.61926060610932     -2.95507185415199
  H   2.58784454427480     -0.27146846376566     -1.03583747906309
  H   6.78860815411303     -0.79003424519381     -1.94536272946641
  H   6.26314544543324      0.99233232913357      1.37889542031905
