29
Coordinates from ORCA-job 17777optt
  Br  2.12223096881653      1.58643669990444      2.79223712710002
  C   2.21786704885708      1.01351079617538      0.99242718058741
  C   3.00215645110635      1.68848887995869      0.13026810444012
  O   3.59639458643190      2.86198451192721      0.42107840008363
  C   2.89201678948256      4.05817554990949      0.32714788325650
  N   3.60717402985798      5.08502592660420      0.36122382945325
  C   1.38474885623706      3.97302656868317      0.25533052666338
  C   0.78268851974359      3.57299310761868     -1.10299124311632
  C   -0.59293930726932      2.90636763327400     -0.95734614483610
  N   -0.49898008412228      1.50161743402732     -0.57036233658351
  C   -0.77818685578502      1.10758995667909      0.80089879396926
  C   -0.01490039331779     -0.18847194477119      1.17364367461042
  C   1.35695345675108     -0.08390556958947      0.56454789284632
  N   1.58420195636150     -0.79148708210137     -0.47862771345448
  S   2.80378596144981     -0.49429479642525     -1.55001811356528
  C   3.37479842006165      1.13842238106895     -1.19986747346939
  O   4.06989640249197      1.73059107604212     -1.98078678931494
  H   3.03184396976347      5.92080295515982      0.31862560274047
  H   1.00152583155566      4.95194490065897      0.54336536596194
  H   1.04675345627958      3.28058408498971      1.02128470758429
  H   1.43402160767714      2.88374099461680     -1.64234231122024
  H   0.69709130192819      4.46594780955566     -1.72554615667303
  H   -1.10509002565293      2.96352866500871     -1.91894680646155
  H   -1.20622273969482      3.47445862698489     -0.24608030361953
  H   -0.96749081649598      0.89768827713307     -1.22909087506049
  H   -0.45018103268090      1.91204227658560      1.45932326990971
  H   -1.84513120625436      0.95510475195180      1.00515332021915
  H   -0.49819681913641     -1.05698884341120      0.72866382322288
  H   0.00016966555668     -0.30692562821935      2.25678676472609
