24
Coordinates from ORCA-job 17775optt
  Br  3.03859462175418     -1.23479114162831      1.89407164748819
  C   4.24013520383602     -0.61328016428539      0.59757889180480
  C   5.50569177845592     -0.31248021435686      0.86606913898099
  O   6.22219891153482      0.14708120959205     -0.26947497964955
  C   6.06480651661708     -0.67386270381433     -1.34400311350865
  N   6.96059065535636     -1.43571311785592     -1.80615701902542
  C   8.04779610226150     -1.74403062039928     -0.95282958749258
  C   8.75527356074211     -0.95011078495308     -0.15525365807354
  C   9.33600432975753     -1.47150301867184      1.12983075856424
  N   8.56851361296817     -1.78343284298204      2.10673726884623
  C   7.19542873600957     -1.66069554622126      1.83332921758102
  C   6.49554632294601     -0.52894610276831      1.93372400151772
  C   10.76200773300326     -1.52416050832721      1.29041091307834
  C   11.95746823023349     -1.53444859450942      1.36472270522623
  C   4.63663007171373     -0.69092764422961     -1.80459839300689
  N   4.19477950989044     -0.83215845849159     -2.97668576992255
  N   3.78034576310504     -0.53758930432858     -0.71543622421836
  H   8.16087568289256     -2.82167343537693     -0.86824337550932
  H   8.69692668847377      0.12778075086676     -0.23990635049729
  H   6.74053338169802     -2.53410159876721      1.37249370939635
  H   6.96052626347259      0.35396704397179      2.35998058138588
  H   13.01854116843155     -1.54782857650987      1.44662930682753
  H   4.96496213334702     -0.93341524752681     -3.63375033374223
  H   2.79282302149911     -0.61167937842670     -0.90723933605113
