25
Coordinates from ORCA-job 17787optt
  Br  0.94139351144816     -0.19170941083562     -0.32900397410179
  C   2.80223358709919     -0.13624545021586     -0.13942278784911
  C   3.52752795301027     -1.24842233854529      0.07389698835900
  O   2.91668251440951     -2.47103985049750      0.15776919395019
  C   3.66280776265979     -3.56680016568491      0.38194890939335
  N   2.90217321209294     -4.66799259093835      0.45539954461039
  C   3.47137713980421     -5.98203254487739      0.65890535767134
  C   3.93840085647661     -6.18345773438265      2.10694235284542
  C   4.47527138752269     -7.52900393196756      2.28800115154479
  N   4.88292546101329     -8.59437411089211      2.39251963594796
  N   4.94771243458426     -3.60012552575185      0.51508580621361
  C   5.59739064362642     -2.40031476660426      0.42477192683633
  C   4.95806003082691     -1.22168021189033      0.21866938448997
  N   5.64885654874205     -0.02760632981898      0.14846013660257
  C   4.97613088629779      1.03836609845438     -0.05311539246483
  C   3.50513554105962      1.13705046033108     -0.22383207394921
  N   2.89052937290633      2.23552155507395     -0.42915957288465
  H   1.90822284791543     -4.54614585790869      0.35345475721570
  H   4.31780281829061     -6.11272071914773     -0.01466499546211
  H   2.71163379592489     -6.71776118454276      0.40353042913112
  H   3.10899106494605     -6.03666762779432      2.80005030765334
  H   4.71524321687895     -5.45430359474798      2.33874091386664
  H   6.67475996101870     -2.41552114622762      0.53028916057726
  H   5.52269662438934      1.97877421562413     -0.10726937059439
  H   3.54704082705592      3.01521276378826     -0.45496778960290
