22
Coordinates from ORCA-job 17782optt
  Br  0.99440817529261     -0.25337567270545      0.24435007315647
  C   2.84608564728563     -0.07210219754421      0.04144138613255
  C   3.62135861210310     -1.17824453664742     -0.02505077614092
  O   2.98600446286735     -2.38506797043667      0.02265947868629
  C   3.68931288680359     -3.52219912881754     -0.15312736162962
  N   4.93348192941510     -3.67366748483419     -0.23295855825605
  C   5.78282645537345     -2.51204877737666     -0.04270928024564
  C   6.43057809659558     -2.64811619429712      1.36566775504057
  C   5.40144856138409     -2.52203230751105      2.39340322757034
  N   4.55624271326399     -2.41278007718337      3.15851981061286
  C   6.88203002092749     -2.57727471722509     -1.02678609299982
  N   7.75674541660215     -2.58273536980891     -1.76492489985578
  C   5.05808514971151     -1.17737958017001     -0.17455261388603
  C   5.74105911821539     -0.04290483379641     -0.37697140249575
  S   5.06814532098863      1.52851060027075     -0.42129961520365
  C   3.34824359414348      1.30215236432767     -0.01856129857138
  N   2.59568752770222      2.30293719767267      0.15491318434510
  H   3.01859773260031     -4.36995724365290     -0.22531855232517
  H   7.18336506649754     -1.87184354608204      1.50577615519542
  H   6.90671954204168     -3.62604699167749      1.44161403447994
  H   6.81405958481059     -0.05799887955455     -0.53628252322820
  H   3.08351438537445      3.19317534705000      0.08219786961846
