26
Coordinates from ORCA-job 17789optt
  Br  1.48313769814603      0.64364711213271     -2.56803181347713
  C   2.96532141995935      0.35409767545127     -1.46179515244154
  C   3.46487750387059      1.31256202067800     -0.66032316213137
  O   2.78687050459379      2.42624357327860     -0.33340501279238
  C   1.51468873610472      2.22949831962882      0.21878219042515
  N   1.04086056219202      1.24206902117635      0.82059143023441
  C   1.63564483534883     -0.03234387066477      1.18348613972104
  C   0.98550573374030     -1.19635714775875      0.37724131033105
  C   1.90350330288159     -2.30720473035847     -0.14178776798357
  O   2.59792514052585     -2.01039535162535     -1.37294915461247
  C   3.46892275471426     -0.98834150811058     -1.22339695296972
  N   4.59452841550730     -1.21223324415486     -0.66682272521222
  N   5.33251438384921     -0.11609878640406     -0.34594948260947
  C   4.78926478206004      1.12761333556472     -0.04471985321633
  N   5.33489454450206      2.06311846079211      0.61995042670868
  C   0.73409773299377      3.42367596474455      0.02047775309233
  C   0.09152221519582      4.41862963554073     -0.14165234424599
  H   1.39022834425135     -0.16779066182702      2.23730663099200
  H   2.72508197992174     -0.06284525725678      1.12280821647010
  H   0.41834191516486     -0.78788286729821     -0.45700205949518
  H   0.25492210072972     -1.68350161499280      1.02495376831618
  H   1.30379696648481     -3.18102945546468     -0.38681526178647
  H   2.64906124965463     -2.59057754509900      0.60616415301821
  H   6.19855521984999     -0.35637141824444      0.11090460537486
  H   6.25351195019017      1.80243440368776      0.97352010287620
  H   -0.48557999243284      5.30138393658415     -0.28253598458637
