25
Coordinates from ORCA-job 17788optt
  Br  0.38357045715168      0.39024093191988      0.81605264183513
  C   2.12392681775331      0.77733202986217      0.22826485274766
  C   3.10181601210159      1.18353767257304      1.08591360429112
  O   2.84969175721454      1.70108953761113      2.32212824988976
  C   1.95686834954894      2.78780389697090      2.43533284717034
  N   1.49203338718301      3.11142411967303      3.54914927913232
  C   1.64937241465029      3.43088141019660      1.14287711600588
  C   0.40964009302796      3.69368339220307      0.73432693667560
  C   0.08583682854329      3.77065069629625     -0.72940728762915
  N   -0.84711032999585      4.41482443449622     -1.29145355266016
  N   0.97867126683500      2.92323074288079     -1.39411928405988
  C   0.64159717290841      1.80651764940013     -1.89655377962456
  N   1.63839664485392      0.88280797607477     -2.18012118543169
  C   2.43555271212913      0.66207662907456     -1.19317470764860
  N   3.75074678064734      0.30964103042391     -1.42736234888861
  C   4.74108848715707      0.53249039892768     -0.52103794040426
  C   4.46858233897844      1.04049673677896      0.70323489110081
  H   1.79332825440485      2.47096905430846      4.28230185587188
  H   2.45116098258608      3.46757186594521      0.41851260335587
  H   -0.42216154458663      3.64105094904887      1.42970931545266
  H   -1.34276460604912      4.99187073281100     -0.61364228346474
  H   -0.39461804525999      1.53558878364144     -2.11111034691849
  H   3.98348617574540      0.15264810847020     -2.39836403234893
  H   5.74422234227746      0.31295688527177     -0.85500667799236
  H   5.25106525019387      1.28061433513996      1.40554923354240
