28
Coordinates from ORCA-job 17781optt
  Br  5.48149181509491      0.64700133390271     -0.10051672078549
  C   3.78000982060435     -0.12420493180474     -0.08805941605672
  C   2.64991911888033      0.59826748783560     -0.07341666063408
  O   2.68709891931526      1.96788532572363     -0.16368968399388
  C   2.27913486167493      2.64809485313058      0.97230537842989
  N   1.21162719769957      3.28292005443412      1.05849862526184
  C   0.22491077451097      3.26571054463569     -0.01688275991828
  C   0.07102331560198      1.97161721013211     -0.83282642138267
  C   0.08598006314390      0.69870291104705      0.05892237036269
  N   -1.08796108885355     -0.13153906536528     -0.11748788384821
  C   -1.50875846397016     -0.63526211495197     -1.32198729528903
  N   -0.92203246616093     -0.62124929264645     -2.44489474202399
  C   1.37855826883955     -0.10369063538818     -0.05525470419296
  C   1.39797964312959     -1.44600165070217     -0.09584079718339
  C   2.63682245453680     -2.20778973517631     -0.14085620519786
  N   2.81022262314772     -3.45333866365627     -0.18902768210260
  O   3.80656194088787     -1.45506716803981     -0.11077950960057
  H   2.99835018416544      2.60490053667439      1.78765432558614
  H   0.44261232897842      4.10004847793014     -0.68740437633272
  H   -0.72994983826858      3.49496865389459      0.45921055876226
  H   0.82943106491726      1.90953020184930     -1.60927289645300
  H   -0.89626978798963      2.01585660545217     -1.33421386995929
  H   0.04332859190749      1.03260406830155      1.09936356905707
  H   -1.72990891821049     -0.19560097319549      0.65251632156056
  H   -2.48515070828035     -1.11480954936903     -1.24963758308934
  H   -0.00915197101116     -0.17002737901599     -2.40859250269748
  H   0.47875263154066     -2.01431001374104     -0.09340392317806
  H   1.91736762416786     -3.93621709189090     -0.21042551510082
