23
Coordinates from ORCA-job 17790optt
  Br  1.18206529595276      0.05227638292023     -0.93022872572712
  C   2.97727537628428      0.08736636529666     -0.40852679710713
  C   3.75471926646450     -1.06001999029479     -0.39676791557013
  O   3.19078958431280     -2.22572909977745     -0.81345807542576
  C   3.77110611223751     -3.45626654660760     -0.55379882517410
  N   3.24081037938615     -4.50244207384714     -0.98369820820046
  C   5.00884870501966     -3.44537076485552      0.29218453226343
  C   5.90451388010538     -2.25429639005972     -0.01473717897094
  C   6.60836605944001     -2.38081105500636     -1.36100695926673
  O   6.52031965325726     -3.34460822090231     -2.06243413198984
  C   5.10724728703383     -0.98063243207972     -0.00463279028940
  N   5.71235777609459      0.14591855346385      0.34628596748954
  C   4.94463441772112      1.21377700016180      0.31573274730466
  C   3.59991714607151      1.27100110017561     -0.03386526226020
  C   3.28637618789913      2.65654514145130      0.11630931650557
  N   4.32547747672612      3.32403798573563      0.50244516116369
  O   5.37960150454335      2.44286800929753      0.63471298982042
  H   2.39000396676050     -4.30314806289692     -1.50858181851479
  H   5.52099613096848     -4.38907044853618      0.12484579683738
  H   4.69984883530388     -3.39824184762250      1.33960811821503
  H   6.69302939173733     -2.14455387483015      0.73440120734371
  H   7.21341918125907     -1.50169217228093     -1.64961922691848
  H   2.35027638542072      3.16809244109470     -0.04316992152834
