23
Coordinates from ORCA-job 17798optt
  Br  1.47123655269089      0.50848621529341     -3.24089782107720
  C   2.46161276554160      0.63254777424771     -1.64925423639164
  C   3.23262438782444      1.71391609135773     -1.41021258660010
  O   3.21316257355037      2.82959131365194     -2.19385218963130
  C   2.45923294105616      3.87165238334396     -1.71444312123581
  N   1.57245971075200      3.88215124197873     -0.83211170494757
  C   1.00587519811783      2.85412270854760     -0.10160120193986
  C   1.36177750889535      2.44885746786532      1.12392182652844
  C   0.76380800777774      1.20341543879261      1.66696756305681
  O   -0.40781379177051      0.97324944372285      1.77890089046386
  C   1.74611619657306     -0.02736519738003      1.85286831447556
  O   1.66614646707660     -0.83858194371706      2.71672938595786
  C   2.65731786371119      0.00200796339282      0.63802015431825
  N   3.72698569715769      0.84964252005066      0.75695636765478
  C   4.03184607835935      1.83274880631215     -0.18806495996129
  N   4.84188434770321      2.79822206223861     -0.02884468021016
  C   2.12694383538949     -0.26012543975214     -0.57591374667784
  H   2.72840390879768      4.77448160137953     -2.24981879023798
  H   0.15927458293817      2.37301123289551     -0.58898648974993
  H   2.23107671997482      2.87790809757155      1.60779528298441
  H   4.11275888310778      0.99425418156209      1.67982062860280
  H   5.28715839758080      2.79635259122141      0.88629677991260
  H   1.25911116719427     -0.89654655457697     -0.67127566529471
