13
Coordinates from ORCA-job 177optt
  N   -3.06700899306906     -0.53882634807732     -0.00279916094151
  C   -2.32846412386335      0.55815661321835     -0.00171767510613
  N   -0.98922267581549      0.64847883466184      0.00272352953971
  C   -0.28759812035009     -0.47370520502066      0.00666852804939
  C   -0.96086490199145     -1.68328670319397      0.00590526969340
  C   -2.36701107232552     -1.66844278610182      0.00111886824632
  N   -0.61965367018274     -3.01484382671716      0.00894063851527
  N   -2.85872136307614     -2.95464652148339      0.00119004951798
  C   -1.79875953614893     -3.70680493523256      0.00576944382408
  H   0.79468678415396     -0.39474448076144      0.01060205164517
  H   -2.86363568847344      1.50041481082037     -0.00522646561710
  H   -1.80848855206634     -4.78665930437445      0.00713917771000
  H   0.30374191320859     -3.41209014773777      0.01268574492341
