22
Coordinates from ORCA-job 17802optt
  Br  2.02218266152540      0.06505208767547     -0.38945798617701
  C   2.99899830688035     -0.87361167840110      0.88108867436092
  C   2.58434757533714     -1.94740249135865      1.53973359002883
  O   3.50857151010881     -2.51419695614074      2.38288622481198
  C   4.65286040916856     -2.73887114711437      1.62715733549347
  N   4.96282529836565     -3.84832086625918      1.12681854453933
  C   3.95251748756884     -4.83712406780682      1.10964751145482
  C   3.09788054929847     -5.12829844205100      2.08341303651235
  C   1.75967577095895     -5.69337880054445      1.76219396690124
  O   1.50244320142581     -6.78286440122399      1.32995748807030
  N   0.74667801368094     -4.76333709788561      2.04348060362646
  C   0.93240611464670     -3.39887310492391      2.32853831702928
  N   0.59557170861237     -2.76352227585795      3.35053727256394
  O   1.51432648532200     -2.72536158978704      1.26765287698552
  C   5.27024355200668     -1.41551252855590      1.30011619130774
  N   6.49215405646267     -1.18476055382679      1.25453767097711
  O   4.29545393051856     -0.44975403274756      1.07962664281925
  H   3.82512664162302     -5.26379262971114      0.11967154926481
  H   3.21356951980321     -4.70891186162105      3.07264527653302
  H   -0.19430937087261     -5.12992030422104      2.06629981616035
  H   0.22122689277067     -3.38110742845415      4.06586448319685
  H   6.68324968478779     -0.21412982918302      1.00559091353941
