22
Coordinates from ORCA-job 17800optt
  Br  1.30030262039916     -2.20197681636369     -0.08020135806053
  C   2.43511352480299     -0.72572797556610     -0.13873025650370
  C   1.99881496196038      0.52412886185577     -0.36784461680633
  O   0.67127141311357      0.69784474361714     -0.65880567827082
  C   0.12427521824863      1.77067194637171     -0.04944499783227
  N   0.55782181219382      2.19190282398025      1.05314084127280
  C   0.45453844716351      3.56893234921707      1.23861031385193
  C   1.00302208099533      4.35259231689104      0.30480943958697
  C   1.68305474119110      3.75312265599794     -0.89904288637342
  O   1.42774141650759      4.11938299466370     -2.01969735450617
  N   2.73590614118896      2.89580765388513     -0.62618218489663
  C   2.94448964082149      1.66640512977230     -0.39939419491692
  C   4.31483357374250      1.23384239608602     -0.14005771960931
  C   4.63026230774723     -0.04546166016062      0.06359124480329
  O   3.72015134010394     -1.05299763324578      0.06125451294019
  C   6.01142806474104     -0.54422685834560      0.31413329973620
  O   6.95748285966022      0.18567979041328      0.37113548535070
  H   -0.63961674084476      2.24265283563031     -0.66596670335810
  H   0.02498638863623      3.93935315114372      2.16035398155327
  H   0.98119626423267      5.43172596465729      0.36724735414198
  H   5.10254401507849      1.97355428764586     -0.12785018724899
  H   6.09137990831588     -1.63720895814676      0.44294166514585
