28
Coordinates from ORCA-job 17806optt
  Br  0.95980902660609     -0.34908780240620     -0.68905539565443
  C   2.80314582269437     -0.12523934193037     -0.40687731346875
  C   3.63834377886283     -1.19154622582868     -0.37063504072879
  O   3.14524986386845     -2.42990118074238     -0.60283829216522
  C   3.80018682644272     -3.58075628453851     -0.21403602618594
  N   3.38585520053653     -4.70690070264649     -0.56270551823307
  C   5.00290082942539     -3.33447296141460      0.62868536309480
  C   5.82571054105839     -2.21574053690616      0.01525435964312
  N   4.98773494674499     -1.03679644327308     -0.17752107452771
  C   5.60451539624731      0.23312778552333     -0.16106906468426
  N   6.86776632921845      0.43052043555391     -0.16801561019450
  C   4.68704312061086      1.36122625812463     -0.11467302060214
  C   5.29142204131525      2.71589638300169      0.08305818102330
  O   5.74837643144718      2.86109389504910      1.42442537147232
  C   7.08341720507320      2.86354541284953      1.65315507368164
  N   7.59291908597314      2.92414763062253      2.79744285552370
  C   3.35758394395750      1.17354803321235     -0.24309661258657
  H   2.54606333088031     -4.63481707780508     -1.13666949631887
  H   5.57514262186503     -4.25459963399870      0.70400232402013
  H   4.67829560241753     -3.03691202726085      1.62935156422960
  H   6.26997651639250     -2.52711139472828     -0.93448847659054
  H   6.62987713137939     -1.93809073529970      0.69559352673767
  H   7.42774315108027     -0.40875581306278     -0.25665959867449
  H   4.53819825111629      3.48591102646068     -0.08237070861177
  H   6.12035589707525      2.86631681771947     -0.61172828202099
  H   7.69695546013312      2.81682532202708      0.75656694132424
  H   6.86765909833654      2.94741555267988      3.51473536356152
  H   2.68575254924100      2.02315360901770     -0.22783139306400
