28
Coordinates from ORCA-job 17817optt
  Br  2.60367000945493      1.40481276012400      3.43490959812208
  C   3.39866333899400      0.46605107151080      2.01736049170542
  C   3.26245636627732     -0.85856947784889      1.83896470164560
  O   2.30390810347892     -1.62312227486741      2.47607046542910
  C   1.38116436759163     -1.87746586624224      1.46796667432714
  N   1.35148254700817     -2.98038671860276      0.88944345907109
  C   0.62226041845017     -3.06941514357162     -0.34991009402396
  C   1.63315351399736     -2.87173903895486     -1.52122420580680
  N   2.06107645961777     -1.49133768239573     -1.65496664846352
  C   3.48803021869144     -1.15815552530856     -1.77210164448142
  C   3.96354351562553     -0.57564824458456     -0.46534593457511
  C   4.10813426029997      0.73739959651465     -0.22494603043958
  N   4.05969676512013      1.21733499147042      1.07259924363143
  C   3.97995238802163     -1.47482316098972      0.70357376469076
  N   4.41555648337480     -2.66410624110672      0.76615818718151
  C   -0.00552524874946     -4.44060500871082     -0.48962967613130
  O   -0.78994034806821     -4.70427845644712     -1.35715824594029
  H   0.80257748196161     -0.99144909685663      1.18647848851715
  H   -0.17012985283111     -2.31883247783646     -0.46617205948225
  H   1.15040833460946     -3.24267300846868     -2.42976757420276
  H   2.49956149917374     -3.50284407169538     -1.31213516614754
  H   1.50636109238898     -0.99222510613266     -2.33181925542396
  H   3.62779590122910     -0.42729146630482     -2.57008562573693
  H   4.06536315605402     -2.04557786142638     -2.04789132652748
  H   4.19735111115077      1.48605769742241     -1.00153103462083
  H   4.24824513219260      2.18497167735711      1.26929765354245
  H   4.82421413722795     -2.94828617027293     -0.12511779083665
  H   0.32896884765673     -5.19379569577441      0.24697958497667
