22
Coordinates from ORCA-job 17818optt
  Br  2.03023165464208     -1.91308385211633      1.84113697237055
  C   3.04944367869862     -0.79473307840258      0.72444151123321
  C   2.79356954276789      0.53286787303303      0.66797733354634
  O   1.78961811427113      1.11337928513394      1.36720962745514
  C   1.09292179477197      1.92913384368756      0.51684743024821
  N   0.67097906203035      3.05886550378723      0.84322465056632
  C   0.60445777051622      3.86872007976596     -0.29970817868047
  C   1.75228977067333      4.08309817828891     -0.97116949821160
  N   3.00412623016865      3.77293114206702     -0.47028588042433
  C   3.69670744584062      2.82591761387241     -0.04964061435239
  C   4.93810503958297      3.09505770396182      0.62763418164099
  C   5.95365373052875      3.28735468146746      1.23017636734030
  N   3.52204210344390      1.34652676886662     -0.18850127414542
  C   4.50794159803684      0.78819012764181     -1.03319127883486
  O   5.14785311839903      1.48199466078459     -1.78576071808833
  C   4.68529210672553     -0.65464701997484     -0.86060383575838
  N   4.01937716382602     -1.36943085573251     -0.02810566523291
  H   1.05662914766246      1.54235002053670     -0.50278339002770
  H   -0.29853287084019      4.41319980796862     -0.53453577250173
  H   1.77994323732018      4.79329556709671     -1.78730860613705
  H   6.86117126653439      3.47188243566654      1.75479168067774
  H   5.44917929439917     -1.11987048740069     -1.47284504268363
