23
Coordinates from ORCA-job 17816optt
  Br  2.46443949080527     -2.45700840934662      0.57199184334104
  C   3.03038357595635     -0.78806074130449     -0.02017948558822
  C   2.22901186724145      0.19784104610323     -0.44309966436635
  O   0.87410245888251      0.18577451535790     -0.34040141005075
  C   0.22460951582539      1.30681732007389      0.23532420714694
  N   -1.01755375188422      1.41698953003784      0.13808146551707
  C   1.12921088027806      2.27764557542356      0.87033144176225
  C   1.04014908253228      3.59622343666384      0.67179099247655
  N   2.15042808353905      4.47818549100572      0.79357278577838
  C   3.20518031911527      3.95360161424720     -0.02138784208975
  C   3.99813945604441      2.99098702005491      0.45934668522205
  C   4.14075788150926      1.71257825278302     -0.25150051393737
  C   2.92240827304041      1.35920920988301     -1.05003547316034
  O   2.46541183811698      2.00418329148364     -1.95448220723096
  C   4.83207002870308      0.64757226560964      0.18395375795862
  Br  6.38089571784938      0.75129050530789      1.21805739792205
  O   4.38574100389353     -0.62367755922966      0.02396776283524
  H   -1.41827862868145      0.66580906949382     -0.42097390681021
  H   2.02946147075752      1.87625784148114      1.31073936178056
  H   0.12550031481324      4.02597132619225      0.27556635176930
  H   1.88481241385050      5.42093256544743      0.54611359024310
  H   3.10445784171611      4.11279681262033     -1.08965800227672
  H   4.11666086609561      2.91608002061050      1.53688086175751
