22
Coordinates from ORCA-job 17819optt
  Br  2.70407404917799     -0.00397773336513     -1.73710062899643
  C   3.82355826751748     -0.73587961427679     -0.44160812047430
  C   5.32127272998115     -0.89870274694975     -0.40244213161093
  O   5.99563494466980      0.22284418506634      0.24601404036727
  C   5.70787336193975     -0.26636906127642      1.51189646745880
  N   6.05080055508274      0.14734471177847      2.63286791018519
  C   4.93426048450519     -1.47049685739644      1.02043462565163
  C   5.50889545542463     -2.83178793484611      1.18995570056547
  N   5.22561046267611     -3.65818658431717      0.28109737956863
  C   6.10029417447121     -4.65435131730558     -0.15417607245772
  C   7.15682805533303     -4.43168836466376     -0.96651609355058
  N   7.73096043479741     -3.21938674714649     -1.37420230342642
  C   7.21768730208672     -1.96116595262604     -1.22356710119244
  N   5.96392190645428     -1.75690646582285     -1.25410552332287
  C   5.75498429779603     -6.01779632253591      0.12570956472165
  N   5.48738232623770     -7.10665188377714      0.37035783900270
  N   3.49937439740644     -1.19776476480903      0.70029604399179
  H   6.60515871784702      1.00142922342272      2.57485659987570
  H   6.36479167999954     -2.93593844122287      1.86434596913399
  H   7.69276922659156     -5.29804801293398     -1.32700375041866
  H   8.71328785465786     -3.27809718572780     -1.59320102816172
  H   7.96557931534627     -1.18642212926822     -1.03390938691075
