24
Coordinates from ORCA-job 17815optt
  Br  1.37485880339912     -2.01825308778503     -0.24059165896847
  C   2.59459389987053     -0.61658814196808     -0.42941905876384
  C   2.48812056923868      0.56112157815128      0.20791136478728
  O   1.60402007204984      0.57756905834021      1.25775395553622
  C   0.38541525000034      1.27358017141330      1.18039975627417
  N   -0.69818493034525      0.73265632994990      1.47660377471078
  C   0.68309784431207      2.64075320075697      0.77916494904205
  C   0.63663582362587      3.01029815123726     -0.49408946777130
  N   1.37048015724723      4.10928971478973     -0.91958829574612
  C   2.62662092593719      4.04279709474643     -0.72463038473504
  C   3.53884102183116      2.92865211948177     -0.36269391116865
  C   3.52337478211139      1.59598631067312     -0.10802120909851
  C   4.81623509617696      0.89305514681271     -0.31829744449697
  C   6.15428585079845      1.41935337602294      0.02410729554078
  O   6.37799414565166      2.44679364248800      0.60348059849968
  C   4.80328590097523     -0.30551273033972     -0.91390802880825
  O   3.66072528488538     -0.96505153292488     -1.19561002300993
  H   -0.56242309671421     -0.25738358452463      1.68531819297288
  H   1.29196458668573      3.21223191450287      1.47194554379980
  H   0.05049183334190      2.48241720339642     -1.23974168757427
  H   3.18630005462729      4.93965325434221     -0.98319341710265
  H   4.55142584926564      3.28699347643984     -0.50428688817929
  H   6.98281861866080      0.75601366840570     -0.28833900766772
  H   5.68502165636697     -0.85142633440838     -1.22127494807266
