21
Coordinates from ORCA-job 17811optt
  Br  1.29153790320754     -0.28876953911587     -0.44797344167858
  C   3.07422306276898      0.03608469218149     -0.02661719036564
  C   3.54549840480733      1.27284743446232      0.25390984201588
  O   2.64720673338405      2.27829800666529      0.39087481573390
  C   2.69801040894443      3.42082330576341     -0.38904690528839
  N   1.66750659105913      3.67789956751268     -1.05739164509720
  C   3.88677870599930      4.25547208315333     -0.22682676053566
  C   5.07054815701208      3.88584919693035      0.27972305832593
  N   5.55772355089826      2.63878086266895      0.63225780768052
  C   4.96952553140942      1.50846289248278      0.56998225684334
  C   5.87634121089115      0.30685057759733      0.84261137991992
  N   7.05339978026154      0.41237631743564      1.28623704094982
  C   5.27107950270562     -0.97013288314672      0.50751137429014
  C   3.98794883549610     -1.07168105130289      0.08379087259255
  O   3.71515108898035     -2.33631330427146     -0.15696489207373
  N   4.91055050896874     -3.05244250758684      0.13981712107065
  N   5.77498983531128     -2.24547826892517      0.51929761232597
  H   1.75651227065052      4.57455765160391     -1.53063663236332
  H   3.77267834619622      5.28718019016163     -0.53526447873130
  H   5.82596977899909      4.65616638522584      0.38102197633409
  H   7.26681979204879      1.40216839050396      1.43868678805111
