23
Coordinates from ORCA-job 17826optt
  Br  1.43855640049447     -1.49447390241883     -0.68734501289362
  C   2.78476647097534     -0.29574628742900     -0.18897730849150
  C   2.64001799863129      1.02801499738782     -0.25290789949991
  O   1.52019847344359      1.66389526088768     -0.68958820369838
  C   0.44223690927424      1.72908618506449      0.18777591712268
  N   -0.18998481161276      2.77705074595137      0.43452066424264
  C   0.21774114970138      4.03994502948004     -0.03928410902489
  C   1.45164044506319      4.52110534042211      0.09392655092058
  N   2.47556832163118      3.75851609761329      0.69774089446433
  C   3.51569894529048      3.30978167299078     -0.10181797565536
  N   4.15788506384818      4.06026800485994     -0.86875221248699
  N   3.73036208098074      1.87582222532592      0.03945057852347
  C   5.01671322950910      1.39130646278594      0.27042128248749
  O   5.97930143887553      2.09255962668899      0.37647568601491
  C   5.14313277376127     -0.13023556075362      0.43126914103856
  O   6.18350169729315     -0.63585330341012      0.74424329700206
  N   3.99726403621443     -0.84877795597999      0.19785795156109
  H   0.16493570548806      0.77008671682694      0.61531003615143
  H   -0.58164212833083      4.66828021048606     -0.40643466744723
  H   1.71499476894182      5.51719833445795     -0.22937895295969
  H   2.13160736758500      3.06604076616557      1.34607157722014
  H   4.86611724131912      3.56349052595123     -1.39938151462073
  H   4.07138642162203     -1.85136119335457      0.30280428002891
