23
Coordinates from ORCA-job 17825optt
  Br  4.29465878188254     -2.29352107743765      4.83880768664696
  C   5.50781964584807     -2.33162030365066      3.41085782212480
  C   6.46771470644167     -1.25838278773893      3.19952658240623
  O   6.60549911617246     -0.28962698872980      3.86512180554851
  C   7.12157021389222      1.15963535989372     -4.62387885369851
  N   7.86131570548745      0.38267756757289     -3.83490713139037
  C   7.62895256634937      0.27589977341593     -2.45921762896187
  C   8.38869905494268     -0.44913979198031     -1.64544689293774
  N   8.07817907962309     -0.65722746537178     -0.29865713594321
  C   9.03934233972149     -0.80129941925300      0.66299720514293
  N   10.29251178116773     -0.63328474473343      0.55404111622139
  C   8.53363308775048     -1.22619248088826      2.02168766970636
  N   9.22669476423217     -1.37448233878122      3.04348588552327
  O   7.17978017315023     -1.49748818135091      2.02604792606652
  N   6.46712352731116      1.82798423906301     -5.29493633288343
  C   5.46700682421361     -3.36204726741214      2.57682657909112
  O   5.41217137962160     -4.25359201996643      1.86422342312118
  H   8.63749580110865     -0.10729798216868     -4.25128629706581
  H   6.75786658451606      0.81568060882983     -2.11242488982415
  H   9.27773370954932     -0.95857578371550     -2.00522316873695
  H   7.11753228194143     -0.77452445290491     -0.02158390167211
  H   10.57173607502962     -0.28966238337583     -0.36045797724094
  H   10.19496280004658     -1.14091207931591      2.81739650875581
