25
Coordinates from ORCA-job 17839optt
  Br  0.76246644331689     -1.51037468818336      2.20959094678368
  C   2.11812698147654     -1.10839917535277      0.96772920343242
  C   3.09955568345175     -2.01504837165505      0.72402619015581
  O   2.99577596546642     -3.34881517004436      1.00647717317565
  C   2.66233436278840     -4.22289914738930     -0.05360443026826
  N   1.90521133169830     -4.03977506381219     -1.04062674607444
  C   1.27843748290745     -2.72795396132779     -1.08222061225247
  C   0.06297126906509     -2.24455757239136     -1.87634992715893
  N   -0.44542052946917     -1.08257173939368     -1.09764734163379
  S   0.32981241566378      0.32468745087853     -0.72899041572513
  O   0.67117991755843      0.95611288689801     -1.96609082899011
  O   -0.51126238435886      0.94876438305126      0.23895115104813
  C   1.93622553983882     -0.03686479709498      0.01843539688412
  C   3.00263107633643      0.30874892748960     -0.74403787596576
  N   4.18124160612232     -0.34640722307460     -0.60870655902792
  C   4.28591696105542     -1.62052354538129     -0.04563184830900
  O   5.26533813425165     -2.30716266368718     -0.21161373898772
  H   3.14659809292266     -5.17316721701066      0.13156459190262
  H   2.04766301194345     -2.00606472194458     -1.34126996001412
  H   0.93414542446155     -2.56575491698237     -0.07454826223566
  H   -0.75736108206056     -2.95937609931697     -1.91687085653545
  H   0.29648357700810     -1.92051388208974     -2.88807848490280
  H   -1.01675634199842     -1.34679633356022     -0.30306874835109
  H   2.92500429134292      1.05011310246905     -1.52572319127730
  H   4.98168076921061     -0.06640046109398     -1.15969482567249
