27
Coordinates from ORCA-job 17830optt
  Br  1.78776620647612     -0.63642319999499     -1.65451567380566
  C   3.47436941703853     -0.91051439210415     -0.86944811236110
  C   3.62974806837764     -1.28062037337438      0.42108778651707
  O   4.87498184647127     -1.32312416708957      0.95388672776886
  C   5.96237859443630     -0.96552379151617      0.17226333316594
  N   7.02478910297285     -0.50150626130549      0.63409525019585
  C   5.70256539839954     -1.24769213335364     -1.25502052641696
  C   6.57798037185491     -2.25123069371747     -1.97414065859358
  N   5.83263687768482     -3.50972576787427     -1.76821137097083
  C   5.67631774376818     -3.91554273004517     -0.45409695815254
  O   6.56147235958065     -3.77016216293734      0.35688707215418
  C   4.32091976551695     -4.49276017093237     -0.05745741597463
  C   3.92277622467724     -4.07652440881728      1.38236457623325
  N   2.72760339187231     -3.24580737713247      1.49473717727257
  C   2.58618172811579     -1.89445767032642      1.29057718196846
  N   1.57717032475611     -1.27737890657452      1.75368180678048
  N   4.53121818846660     -1.05168353025295     -1.73039299629128
  H   6.99172068192824     -0.39538718610493      1.64698159769058
  H   7.56512551547807     -2.32818023755877     -1.53042420639623
  H   6.64087535079283     -2.04607074421663     -3.03913969234489
  H   4.97106148070582     -3.51472721644028     -2.29780399961203
  H   4.40892818134972     -5.57978484047363     -0.11175805011182
  H   3.54197494166481     -4.19609842934050     -0.76158461179448
  H   4.78543435554299     -3.60968173285012      1.85655749292649
  H   3.69808594075962     -4.97221808123532      1.95583378297928
  H   1.99312661813659     -3.60199822548186      2.08777235489150
  H   1.57379132317542     -0.30417556894926      1.46526813228150
