21
Coordinates from ORCA-job 17833optt
  Br  2.99100480273399      1.25138527236748     -2.14700141060345
  C   2.92802745762978      0.36210540430077     -0.49216255312550
  C   1.91566284318193     -0.55086855448455     -0.19733187768543
  O   0.97758910442788     -0.84461280800413     -1.14397799235589
  C   0.49369130110414     -2.15800813937403     -1.31833189958308
  N   -0.58590532393371     -2.36251553078158     -1.91229138382085
  C   1.37960294835592     -3.16112432121553     -0.70549325244190
  C   0.99844269503949     -3.81366708532968      0.39534319454263
  N   2.00844203876091     -3.83667758843759      1.37039895778022
  C   1.65816441301817     -3.27391022129882      2.44691267637352
  S   2.82212652232717     -2.17238204791160      3.24456161707488
  C   2.85208965141995     -1.05359899626459      1.83922166217066
  C   3.91518586622849     -0.18297634963414      1.63427890084223
  C   3.91646453912164      0.55722218139946      0.46078480893358
  N   1.85100077182779     -1.14674089176047      0.97368037034351
  H   -1.04276926379696     -1.48602481941424     -2.16228502571655
  H   2.44388581907087     -3.01277914014437     -0.84480632082800
  H   -0.04615244044970     -3.92773856749748      0.67807015583626
  H   0.61822946252734     -3.14601389793341      2.75707488577357
  H   4.72811412412884     -0.10798275959239      2.34228159994728
  H   4.72010266727607      1.25090886101091      0.25207288654231
