24
Coordinates from ORCA-job 17848optt
  Br  1.12632600154677     -0.16877777674674      0.26754542801676
  C   2.98569496038886     -0.11049823642046      0.11312881145162
  C   3.68698783023440     -1.22715635216527     -0.12775696197073
  O   3.04757301840909     -2.39506880037415     -0.29606941390998
  C   3.67696954929366     -3.63106839383858     -0.29192214524631
  N   3.00885175001407     -4.68147045901142     -0.43753986047944
  C   5.10929455260615     -3.59954774575873     -0.10208368885850
  C   5.75528230293389     -2.42922371009905     -0.08891591400402
  O   7.08442385102173     -2.30540273547571      0.10306567970829
  C   7.70529800397660     -3.19345334942638      0.96913883594791
  N   8.92774358598125     -3.41496802509559      0.95487349087707
  N   5.08538390238014     -1.21711140432981     -0.24916658461992
  C   5.74886615593045      0.01977224886226     -0.48690722855400
  N   6.87330829512431      0.20002404275642     -1.02590923048016
  N   5.03102082005270      1.10858113572733     -0.03962041371748
  C   3.66380040069140      1.17792363801769      0.23063475684989
  N   3.04077471035729      2.23968439577438      0.52809894186436
  H   2.01555313799969     -4.48273282037107     -0.54311657057136
  H   5.62599767660400     -4.53905275238592      0.00392261995219
  H   7.02214928475057     -3.64195978491845      1.68593531252639
  H   9.40930555328512     -2.91006778724860      0.21103122325667
  H   7.33799653739431     -0.65363216700521     -1.30118590752980
  H   5.51931730338857      1.97973574430621     -0.19051504372528
  H   3.65508081563491      3.05047109522687      0.56133386321584
