23
Coordinates from ORCA-job 17842optt
  Br  3.04639001453289     -0.95464711751972     -3.37191400245923
  C   3.09322662271046     -0.35927043090909     -1.58656353859779
  C   2.96351638029947      1.00549255252453     -1.28443027302968
  O   2.66437492688243      1.96279079360007     -2.18896130797521
  C   2.12391861234894      3.13323360812975     -1.60817464052695
  N   2.49618054814115      4.26391868072063     -1.97273907081639
  C   0.97332024118126      2.90662797122731     -0.68614361124494
  C   0.94843548551426      2.90849770812294      0.64438695506809
  O   1.98139458584773      3.26049771961323      1.47643110515097
  C   2.41401076175917      2.38051555060545      2.43934961397231
  C   2.91025530571635      1.14894535595460      2.26151523015462
  C   3.09894569941118      0.54033627435449      0.94690585436215
  C   3.21243431046022     -0.81327895526300      0.64910006915611
  N   3.24384195591671     -1.22799022683770     -0.61957382161569
  N   3.07405661355787      1.40926693091463     -0.05768772815448
  C   -0.32606602368656      2.61293036943987      1.37467633920385
  O   -1.35194928172404      2.29957042546208      0.84347050878437
  H   3.26249404000381      4.20391468030493     -2.64359490494038
  H   0.02255034774728      2.68668619707475     -1.16250761929722
  H   2.37433340609827      2.81824076202345      3.42961214712994
  H   3.18284930000448      0.59517650818858      3.15009183374326
  H   3.26705715885025     -1.57323773815807      1.41800259243701
  H   -0.24757101157361      2.72078238042627      2.47274826949527
