20
Coordinates from ORCA-job 17846optt
  Br  0.91584568743976     -0.12766167533614      0.03353322067462
  C   2.79032378457538     -0.09916787635501      0.01981645297190
  C   3.52397530496389     -1.27541101584457      0.00505194744087
  O   2.85249779102645     -2.46720316401825     -0.00396404777330
  C   3.60384442454540     -3.58756787882084     -0.02596922191918
  N   4.85409054129281     -3.70678651646533     -0.02577731629308
  C   5.68288252097501     -2.51112596832392      0.02635527914782
  C   6.53458034454631     -2.64458513837173      1.33392485618969
  O   6.71885940959488     -1.73407928925034      2.07217822475935
  C   6.66711808351867     -2.57739167680231     -1.07120450417496
  N   7.47258931833009     -2.60986913862864     -1.88433361557541
  C   4.90525861012674     -1.22101313219297     -0.00429210907097
  C   5.50415555177465      0.03278696410728     -0.00832097427507
  N   4.81777147770880      1.16580807642172      0.00443584581961
  C   3.49185971797439      1.09825880744814      0.02336697135177
  C   2.76061194367608     -4.76755736185504     -0.05201674493723
  N   2.08837825092971     -5.69302184445044     -0.07038094570274
  H   6.93513630773059     -3.66057748688426      1.48604374218178
  H   6.58553029427228      0.11302199157099     -0.02515518433529
  H   2.94569063499806      2.03414332405170      0.03870812351983
