25
Coordinates from ORCA-job 17845optt
  Br  1.30517617247909     -1.90340789389579     -0.70159174049887
  C   3.00153396705610     -1.46342972382468     -0.01380217802530
  C   3.35157085916074     -1.83316220227645      1.23287735079180
  O   4.55280791517661     -1.47616973086472      1.72544397510452
  C   5.66375688158593     -1.33938950962900      0.89688327592404
  N   6.80273828134539     -1.12809275057472      1.39204884714881
  C   5.37750281647184     -1.48263613639416     -0.52286849466625
  C   6.41426295954343     -2.14677301816644     -1.38459936070675
  O   6.16688399781536     -3.55783165135697     -1.42356293202836
  C   6.47596567997874     -4.30243124511797     -0.26218021387080
  C   5.24582836122550     -4.96996394622047      0.33938357257207
  O   4.37796247144181     -3.91490715427024      0.76420878307986
  C   3.40596769458955     -3.94510844005658      1.67301443116770
  N   2.76543446117244     -2.88311970800719      1.96590320310753
  C   3.10877570587137     -5.21690499875432      2.30244788782483
  N   2.93681537223233     -6.24957774274647      2.76622182241386
  C   4.10433832089803     -1.33510760358065     -0.93745386180219
  H   6.76830360130695     -1.09506298875306      2.40899789768780
  H   6.33583611357496     -1.81649747340266     -2.41866213716906
  H   7.42001418081446     -1.94591603345049     -1.01213163026836
  H   6.95721114530804     -3.67598765019083      0.49355428638792
  H   7.17262823973238     -5.09948076935299     -0.53887532716263
  H   5.52884323033534     -5.59683845376190      1.18780549429009
  H   4.72160810049746     -5.56867758032247     -0.40647497418917
  H   3.86623347038601     -1.40352559502870     -1.99258797711307
