25
Coordinates from ORCA-job 17847optt
  Br  1.40316544787573     -0.70351011102556     -2.55303823290349
  C   2.56074692550592     -0.04827411227506     -1.21530410730613
  C   3.22258587623553      1.17909305428828     -1.36523797222534
  O   2.63252405586465      2.23572947722659     -2.02858795595329
  C   1.51141543053655      2.69299748333837     -1.30182308546339
  N   0.36819955058631      2.68841752327912     -1.80705087182617
  C   1.75550996523322      3.29471215951986      0.07758958567375
  C   0.69061028934748      2.96975364925035      1.15852844155926
  O   1.18493115303241      2.07672861302155      2.19136669591358
  C   1.67557290986129      0.97641673052539      1.63420906863133
  N   2.73200267803385      0.38144734755852      2.04351309919977
  C   3.35365859689763     -0.12625855614674      0.89176997315530
  N   2.63207068591077     -0.67671863627781     -0.07297822351298
  C   4.54952160537773      0.56572024443873      0.55437609178873
  C   4.36909209954263      1.33293396629127     -0.59733057184035
  C   5.60927119543434      0.79343629972201      1.47123453123052
  C   6.52568730509873      0.96380479328220      2.22527171408207
  H   0.37622497392872      2.27520658201170     -2.73898469213378
  H   1.75680732667271      4.37466057432443     -0.08474890762852
  H   2.74505446433436      3.04073154242714      0.45482934399317
  H   0.40958884836064      3.86524030587453      1.70298998109199
  H   -0.19785410094955      2.53989060012685      0.69279216409502
  H   1.16926552614457      0.71075593743920      0.70515407751436
  H   5.03402874883883      2.16776878424307     -0.78218166798908
  H   7.32731844229490      1.11731574753596      2.90764152085369
