24
Coordinates from ORCA-job 17858optt
  Br  2.69910385722991     -1.74352616893911      1.56150738095665
  C   3.06368705773744     -0.33080338919153      0.39072917969631
  C   2.29531695023249      0.77834175183927      0.34174465412931
  O   1.25724434626911      0.94549698127445      1.23097292210812
  C   0.20230429768861      1.63281233170133      0.70121883044912
  N   -0.24683447223411      2.64694641276847      1.27317877140057
  C   -1.07970835060794      3.48309074553300      0.44123000845995
  C   -0.40076956986935      4.83071137553275      0.18569031716142
  O   -1.04072656133482      5.84718910324123      0.14378096761794
  N   1.00048491050869      4.93437132340784      0.08812467415780
  C   1.98938278272707      4.00008122309773     -0.10098640514935
  N   1.78432501216746      2.89469980431528     -0.67352121005119
  C   2.67578289934960      1.82590004487342     -0.58630255650267
  C   3.77453366369909      1.68893956414110     -1.37070846734720
  C   4.60935683035937      0.50850144356003     -1.31551420518557
  O   5.60795648532047      0.29791560506926     -1.97262989711856
  N   4.16517988529795     -0.45155813245188     -0.39678669094440
  H   -0.13302929916654      1.24696992377793     -0.26522637818762
  H   -2.01302660116724      3.74121263685771      0.93769073862141
  H   -1.31600915772544      3.03886466655590     -0.53511114241538
  H   1.30204050821942      5.88994736607561      0.22495854231397
  H   2.96014647426366      4.29752972532139      0.30408070982765
  H   4.04578967700444      2.45161599613369     -2.08575161726173
  H   4.72646837403066     -1.29025033449489     -0.34036912673657
