22
Coordinates from ORCA-job 17859optt
  Br  2.59218835873397     -1.20713329959435      3.04406567010663
  C   3.20325512804247     -0.39132272599879      1.47122928892953
  C   2.38863715006301      0.31698726938423      0.67266994882628
  O   1.06594337766655      0.38406616026072      1.00800814790947
  C   0.40796416637144      1.51929189676165      0.71195535328253
  N   1.00400751599316      2.61985973422869      0.61197918561185
  C   0.46446280070246      3.53459249102526     -0.28844097211664
  C   0.30499253205341      3.15322887067660     -1.57584330433629
  S   0.63923487115671      1.48573306436472     -2.10284303653657
  C   2.35448394473160      1.41772458094469     -1.64335058129155
  C   2.94850159084420      0.91521704882368     -0.54706763637807
  C   4.47009166263199      0.96895712778295     -0.60138987680427
  O   5.03813782969679      1.74822402828339     -1.31378119845116
  N   5.21223383449143      0.05825247266671      0.18005899884797
  C   4.60965188056766     -0.54818686582285      1.12558181453537
  C   0.25167177059700      4.88383533031181      0.12916192168647
  C   0.05633241868047      6.01059332083393      0.48558084950657
  H   -0.65062456457815      1.33284811340561      0.54503961771464
  H   0.00540867965745      3.86594393397476     -2.33016680251262
  H   3.02914850815815      1.84252049395590     -2.37782299957245
  H   5.19043453657093     -1.22948111506897      1.74394290683361
  H   -0.11115799283272      7.01324806879962      0.80043270420870
