27
Coordinates from ORCA-job 17852optt
  Br  0.83319093648843      0.68951334702413      2.95153698306890
  C   2.03892972104841      0.83102280759378      1.54004498463139
  C   2.89295395314121      1.84020775084602      1.36906459451714
  O   2.80070086264189      2.97637138995263      2.11879940623858
  C   1.76045605160605      3.81822785891385      1.71954290480167
  N   1.11584366383448      4.48312308709875      2.56041715922633
  C   1.50807711362239      3.96417420877717      0.23102033425991
  C   0.23229081890586      3.31483934414851     -0.29980108399482
  O   0.24407109893351      1.90671460484691     -0.10875379021669
  C   -0.34809718209821      1.10801350727818     -1.08674123794991
  O   0.54537683573389      0.72260389420578     -2.09908758208392
  C   1.47184734499367     -0.29009767021355     -1.74706801890961
  C   2.35976954191713      0.22092782667881     -0.64291790326731
  O   1.88744348655623     -0.12645325148103      0.59474135241532
  N   3.31537966881522      1.01467573227751     -0.84954206932641
  C   3.83389256770367      1.75419222587205      0.23817234895780
  N   4.92631005098798      2.38675815511370      0.22021176306920
  H   1.41194125562567      4.25841667546843      3.50986972362020
  H   2.36767719533041      3.62833974547166     -0.34588587654527
  H   1.39912270442184      5.03618446204464      0.06154941872935
  H   -0.63299696569230      3.73329182883664      0.22122199733285
  H   0.15392889763327      3.54494079785139     -1.36575902989258
  H   -0.73028225159382      0.22347219036586     -0.56836145425524
  H   -1.15623997969241      1.63705439635842     -1.59528411586682
  H   2.06614146359954     -0.48615943751572     -2.63473949159801
  H   0.95124959371223     -1.19639560426688     -1.42559306726006
  H   5.39502155182373      2.23904012645231     -0.67365824970199
