22
Coordinates from ORCA-job 17856optt
  Br  1.08839245513644      0.11617698795285     -0.13724338124422
  C   2.95470854677260      0.01162365361843     -0.06865175541553
  C   3.70295428402529      1.14299087464871     -0.04304028580440
  O   3.21632020751440      2.40723531701705     -0.06820001501239
  C   4.26406688127549      3.30740133268044     -0.04051741140205
  N   4.15915410041519      4.54389777681187      0.03000891851632
  C   5.56696324379551      2.53134846413256     -0.07603138190684
  C   6.45961918331868      2.86011105362462      1.12261526301487
  O   7.61239345046628      3.13424839513088      0.99895283533031
  N   5.06284494925969      1.18110264283403      0.00348605730252
  C   5.75471261888573     -0.00659365055923     -0.00400296506347
  C   5.04624942280486     -1.18997582624744     -0.02111634272062
  N   5.97860725136127     -2.16486278981507     -0.01590420410071
  N   7.21653780698603     -1.69073740217428      0.00103414111833
  C   7.11544398728906     -0.36910536113347      0.01001028031539
  C   3.59279132044559     -1.30851023716475     -0.04988442570683
  O   3.01214656318255     -2.37546214956460     -0.06190981843217
  H   3.18922097689008      4.85502085420217      0.05454138311565
  H   6.12644858658993      2.72067523952594     -0.99542299498985
  H   5.96330150808545      2.78993756751723      2.10791263982400
  H   5.80630488216861     -3.15764004757758     -0.02638192677046
  H   7.99581777333122      0.25211730453962      0.02574539003215
