22
Coordinates from ORCA-job 17865optt
  Br  2.01203339171194     -1.86990474329243     -2.04196687310702
  C   3.34334280651979     -1.77357682234954     -0.73990056654457
  C   3.47752188535154     -2.65993696719930      0.25585125954488
  O   4.41629526666554     -2.42866979182488      1.24281735907956
  C   5.50951912991023     -1.69751749402993      0.92509879914202
  N   6.34020286576387     -1.40497872606586      1.81551991004571
  C   5.58812398561933     -1.33469108630184     -0.53549259293559
  N   4.38283235189132     -0.83361745607729     -0.99154104955366
  N   6.60599981579657     -1.49172104559669     -1.27072351423999
  C   7.63379798397072     -2.33707554685382     -0.86982667436240
  O   8.80552391994655     -2.10727202742192     -0.97891628106240
  C   7.19188499298251     -3.67448266059124     -0.27626617101707
  N   5.98182307231736     -4.04824368103135     -0.26812742751488
  C   5.66562602718945     -5.07688308537397      0.64889688733069
  N   4.50773789066607     -5.40622043557316      1.01641197399165
  C   3.25943741565792     -4.97131522229944      0.55840123346665
  N   2.76953206713707     -3.82848363589483      0.29593058034699
  H   7.11019229183840     -0.85612683344100      1.43977043811340
  H   4.41310631454401     -0.51830763688771     -1.95430175129071
  H   7.99978645833954     -4.20785379725762      0.23463117775433
  H   6.51174599252108     -5.56459762899442      1.14012085042684
  H   2.57093407365911     -5.80952367564173      0.48861243238560
