24
Coordinates from ORCA-job 17860optt
  Br  4.16451108333875     -0.17976060704968      0.47635334617561
  C   5.47239885164684      0.90242200264427     -0.32540773634291
  C   5.43162766511452      1.18681272373078     -1.62392832280854
  O   4.44541079339851      0.75087395130246     -2.47812392970738
  C   5.00031050055809      0.23595044775124     -3.62992839505130
  N   6.14741388131578     -0.24615434707639     -3.53733601680065
  C   7.19749765177972     -0.08396043426243     -4.42876524972614
  C   8.32813777506972      0.21988274545340     -3.78697497439823
  S   9.67709340827054      1.14588745296658     -4.36539477920387
  C   9.76157144757576      2.31733150555213     -3.06888916150292
  C   9.02906516100390      2.61662733297760     -1.98643273269514
  C   7.75702534163481      2.12079677806794     -1.40020715592651
  N   7.75423846902217      1.87323515710863     -0.14872721106845
  C   6.57983442997411      1.44604544571228      0.51065273264225
  N   6.57163189281766      1.51685502242452      1.77295799393883
  C   6.47972621388374      2.08882790300688     -2.18526146106658
  N   6.34931716988081      2.84235074287192     -3.19144327227329
  H   4.38292894979165      0.43815527323440     -4.50512580039407
  H   7.03758596367053      0.05322008161236     -5.49435194326588
  H   8.34109343615352      0.04562242677381     -2.71632714925858
  H   10.68088812516274      2.88090890577151     -3.18575140252125
  H   9.49233975849184      3.34311845002425     -1.32747120911913
  H   5.68933292566833      1.17399238433641      2.15180940956181
  H   5.41101910477589      2.77595865506513     -3.59192557918767
