23
Coordinates from ORCA-job 17863optt
  Br  1.97184803547796     -0.95847435713706     -1.12004439415068
  C   3.78083056043166     -0.99811498052299     -0.63421267925549
  C   4.15917300817886     -1.03089364590690      0.66088457809688
  O   5.48296102999209     -0.94039978359782      0.95418680063381
  C   6.44640973049669     -1.02696538775076     -0.02926159743830
  N   7.65653013768253     -0.77026069055714      0.17431835677064
  C   5.91442091124276     -1.48864376174220     -1.32208699450001
  N   4.67916924971448     -1.33450104176833     -1.61713946806304
  C   6.79332983587183     -2.26965713008151     -2.24792101665351
  N   7.15694827052327     -1.91364763168284     -3.39510115876808
  S   7.29786972993707     -3.92715354326301     -1.74274007956348
  C   6.73190188378982     -3.97454461141876     -0.06799497441967
  C   5.47707412369772     -4.28309160547737      0.26891128009409
  C   4.93572769751443     -3.58056128974145      1.43865173638331
  N   3.75589252268388     -3.11934620085780      1.33919904807828
  C   3.42353800768127     -1.81590576742294      1.73502641950404
  N   2.63315120788908     -1.46774461069650      2.64216414246522
  H   7.83217167822363     -0.46855057616952      1.13207017692247
  H   6.80864664231744     -0.98435036059466     -3.62898564166167
  H   7.40823674943108     -3.55406272099938      0.66961503588185
  H   4.76510416895842     -4.66424687641845     -0.45386851853189
  H   5.65325980299378     -3.22057109460732      2.18140560526140
  H   2.48980501527019     -0.46031233158529      2.63292334291383
