23
Coordinates from ORCA-job 17867optt
  Br  0.89655883470299     -0.22601672413102      0.07978587431690
  C   2.75540294720307     -0.09411271162638     -0.03074101841372
  C   3.51181217584506     -1.20030112727980     -0.01733268534637
  O   3.08054517745451     -2.47953548255914      0.07098632284874
  C   4.15995809653340     -3.34542862422080      0.02053310619583
  N   4.08127571947360     -4.58586650096852      0.05181168242610
  C   5.42734296888741     -2.52779605928118     -0.08075463342573
  N   4.88151614716643     -1.18467866468524     -0.11245712969818
  C   5.55364514845822     -0.00734091880424     -0.10613632240006
  C   4.86619290779442      1.17763934756755     -0.09251551560173
  C   5.66421203404131      2.38017393668332      0.11637229917555
  N   5.36604401499937      3.53778248017712      0.49419796151153
  O   7.03801812530398      2.19577377592752     -0.11357863297686
  C   7.55816971789186      0.98372586397813     -0.17194532134826
  N   6.92833028968878     -0.12356119404770     -0.12742469315332
  C   3.39415861935487      1.21566063787170     -0.22116172377335
  N   2.67125755455311      2.23070297331777     -0.49759023997175
  H   3.11820056100753     -4.91038180522090      0.12080080789822
  H   5.98258484098490     -2.76950750185379     -0.98596361311758
  H   6.07169661856543     -2.68790236132196      0.78294800493452
  H   4.37657687542970      3.62231685876838      0.70225258695662
  H   8.63726686542362      1.00785469820675     -0.26863097650144
  H   3.22923375923635      3.05679910350243     -0.69045614053565
