25
Coordinates from ORCA-job 17872optt
  Br  1.27267508030677     -0.84091266057874      0.08400628198409
  C   3.11800429309328     -0.49778776143324      0.00154807370594
  C   3.60145319864960      0.79335883644861      0.17287680651897
  O   2.70667851123002      1.79603554360047      0.35236284879729
  C   3.13089026467182      3.00894723429356      0.84564531417475
  N   2.37088883491166      3.99869735289461      0.89445124223580
  C   4.53758315622087      3.01483705632931      1.35893175961695
  N   5.41856501095545      2.32213857530547      0.41623680887110
  C   4.97850087990514      1.01804751856497      0.11243730263261
  C   5.79701545048966     -0.07886779065988     -0.17416573131092
  C   7.26176694912835      0.13655340446190     -0.41641282500530
  O   7.41167515670082      1.11876416904240     -1.42036677748708
  C   7.59262662148954      2.40903493539523     -0.92701239362513
  C   6.56783273639657      2.99790518779116      0.03582563573348
  O   6.79865114474586      4.10668814026948      0.45960425542233
  N   5.32326167509697     -1.30413716659391     -0.34481520421257
  C   4.01821667586222     -1.51884157292367     -0.24099327036705
  H   1.44599501041595      3.77732675241806      0.52590702649121
  H   4.56652863692295      2.49836311754514      2.32399841624891
  H   4.87148837294504      4.03723537774181      1.48228667732843
  H   7.69024601734841     -0.79585577269127     -0.77702643671244
  H   7.78347794542585      0.43979465039138      0.50029295848408
  H   7.61495843439444      3.08334030605780     -1.78285005253546
  H   8.55115052993986      2.50652430916706     -0.40419331355926
  H   3.66586941275284     -2.53518974283775     -0.36657540343072
