23
Coordinates from ORCA-job 17876optt
  Br  1.56236325064084      0.30005508243384     -0.03492471028262
  C   3.39902701359382      0.08962377265553      0.20231462375715
  C   4.01265199835364      0.07797238337030      1.38907845939685
  O   3.19807210100338      0.13942000455088      2.48995654013935
  C   3.58986825773912     -0.04227153046864      3.76130722641050
  N   4.71188679371714      0.09194470279652      4.31920257470547
  C   5.88788198593208      0.50301044665059      3.69621642881829
  N   6.26028458467361      0.45511058007349      2.48249838893688
  C   5.48051700078071      0.02680396732519      1.42864005139048
  C   6.10601875492566     -0.33471388186271      0.27111115009305
  N   7.47855810263672     -0.18649421624467      0.13864686777172
  C   8.25360384099738     -0.95030792127132     -0.51874509295045
  C   7.95512079831520     -2.13553255740001     -1.30998924628988
  C   6.79516694436083     -2.33854669769655     -1.95644273471441
  C   5.59668825161965     -1.54325628174359     -1.87949205214909
  C   5.29210871966310     -0.68648529416416     -0.88937948256781
  O   4.07164094932795     -0.05630309536342     -0.96695089106236
  H   2.72055009245877     -0.30576816282750      4.35575712482291
  H   6.61003111072451      0.89181595182947      4.40783438484891
  H   9.30301121092401     -0.65405453884183     -0.51317198127658
  H   8.78301760457935     -2.80749439651867     -1.49840069609902
  H   6.74200104958619     -3.18376334188120     -2.63383782550254
  H   4.83292958344623     -1.70076497540152     -2.63022910819681
