21
Coordinates from ORCA-job 17882optt
  Br  1.07544220358075     -0.90574823828225     -0.47222040103385
  C   2.89718386610024     -0.53068876668036     -0.28666211856599
  C   3.33970443583677      0.74485610220083     -0.19574686572188
  O   2.39249776627516      1.72866698516932     -0.27686625787141
  C   2.44226019267804      2.90589368694241      0.39169665126723
  N   3.38752189257617      3.72289234388439      0.48724895069386
  C   4.62263699887994      3.55808401723699     -0.15560011976353
  N   5.19599649530890      4.48044048424789     -0.79327179677841
  C   5.32960384513397      2.25216416893835     -0.02302439600939
  C   4.74962482346570      1.02299109152025     -0.04462357010942
  C   5.64221623290542     -0.11525564531704      0.03195237105113
  C   7.03943657591553      0.22102993049961      0.19356296641803
  N   7.52914802608219      1.39703624050665      0.22808356620889
  O   6.64051390566034      2.44470731445346      0.09711190185777
  C   5.21474348605609     -1.38820193254718     -0.05431535596061
  C   3.80206397587897     -1.70402486487185     -0.23702094568732
  O   3.39073643034078     -2.84045505463857     -0.33141362219003
  H   1.47348994590352      3.13302603114604      0.82510883326655
  H   4.62332811587745      5.32573438802496     -0.77476419558392
  H   7.77701528332307     -0.56667986015179      0.29747529686685
  H   5.89983550222090     -2.22446842228215     -0.00071089235456
