20
Coordinates from ORCA-job 17883optt
  Br  1.37675011016591      0.25914707686828     -0.20681211261337
  C   3.20017936424871     -0.05623842505517     -0.04290898945123
  C   3.71049442512671     -1.29701907558947     -0.06420730572371
  O   3.01453147346692     -2.44751540276141     -0.19973148069167
  C   3.65941476094660     -3.67759403604414     -0.21095363295410
  N   2.99658225583555     -4.72674225321359     -0.34400416678978
  C   5.18434091939618     -3.78031023590949     -0.05993904603586
  N   5.77772171371996     -4.89090939101414     -0.06560280153817
  C   5.86173495997418     -2.49660847611185      0.08653792547935
  C   5.11288923754318     -1.39676854914203      0.07275052710869
  C   5.93110141061305     -0.21809766883312      0.23116011138291
  O   7.21477223421066     -0.62443563740320      0.34509535843155
  C   7.25931196119306     -2.03680437940320      0.26369786601925
  N   8.30991139919418     -2.69911925384347      0.33558473384483
  N   5.52569829620486      0.97676832593908      0.26067179530928
  C   4.11504420562743      1.14894993566692      0.11876139807422
  O   3.64781347160802      2.24866886217695      0.12690655703613
  H   1.99819183244617     -4.54851535213885     -0.43613312377453
  H   5.09526738046062     -5.64597102154551     -0.18072154077291
  H   9.12824858801800     -2.10288504264259      0.45984792765911
