25
Coordinates from ORCA-job 17891optt
  Br  1.32064188204007      1.49722691298679      0.85852077722108
  C   2.89978721676115      0.74533105146460      0.17630663867957
  C   3.17402960988998     -0.55790401382925      0.34049279790176
  O   2.37324646954574     -1.33300347904761      1.14263826341107
  C   1.69373004969585     -2.41521904486122      0.66481236159340
  N   0.60569700192021     -2.78862055459277      1.16900304983417
  C   2.27846744883056     -3.23190198835511     -0.42788652500118
  N   3.45605055740694     -3.24691244996579     -0.89668954426529
  C   4.49898661539032     -2.37979468062096     -0.62323964593024
  C   4.42303404079330     -1.11026465312589     -0.16926921592007
  C   5.54272127198840     -0.14508932893029     -0.37388351223015
  C   5.10870133618123      1.21832918033205     -0.71070966497915
  C   3.86153309673066      1.63179433568834     -0.46032168839338
  N   6.79625513794741     -0.35721393136486     -0.30074031714289
  C   7.35421983086607     -1.59440707306219      0.16865563920729
  C   8.65731552368451     -1.31770884327521      0.89464041504369
  O   9.11310024862838     -2.05693590582732      1.71775123349740
  H   0.31243580287541     -2.15789872098352      1.91590032682763
  H   1.56658718272012     -3.95287391618587     -0.82120033488136
  H   5.44621615445848     -2.75138193607569     -0.99017803772043
  H   5.86580813699693      1.88577321918928     -1.09890015228463
  H   3.55542739854681      2.64874207698134     -0.66366013616171
  H   7.62549501836716     -2.22428605445223     -0.69059224237904
  H   6.70272501998318     -2.18646589995147      0.81941303271934
  H   9.16578794775109     -0.38231430213512      0.59613648135311
