22
Coordinates from ORCA-job 17892optt
  Br  1.08403364071892     -0.12760525899390      0.12277217150337
  C   2.95030930355879     -0.09399177166134      0.10044880053051
  C   3.64492464196613     -1.25083797589625      0.08501266034802
  O   2.94719271252958     -2.40731698729243      0.08037615952016
  C   3.54903060845164     -3.64394392443337      0.06496175478892
  N   2.85554391393844     -4.68533631363389      0.05522813909937
  C   5.05291601142424     -3.70093808743792      0.06089611523393
  N   5.66849051371666     -4.80924622280712      0.05324891320069
  C   5.76825946831720     -2.43834326100630      0.06503742324550
  C   5.09085142421304     -1.27273056099320      0.07548172661959
  C   5.67086954620224      0.06484198908728      0.08014757062561
  C   7.13814149560332      0.34042841574132      0.07125193494311
  O   7.98784238787185     -0.50351335323383      0.05899550463225
  N   4.98252232953009      1.15230590523020      0.09131906313684
  N   3.64495552775644      1.12206322705697      0.10135524184873
  C   3.09963905116227      2.43645187538035      0.10981016314300
  O   1.94571640193958      2.71437811290998      0.11845684155679
  H   1.85779772279006     -4.48191813657744      0.05926304198976
  H   4.99266885970996     -5.57669105471626      0.05084680338645
  H   6.84620612618605     -2.47497502524584      0.05956955121555
  H   7.36995394774231      1.41898621058323      0.07737812244244
  H   3.93513436467113      3.14693219793980      0.10614229698941
