22
Coordinates from ORCA-job 17898optt
  Br  9.88485703512958     -2.82025142634879      1.97067678807828
  C   9.43982327043729     -1.07850312721124      1.44869021404606
  C   8.19637146006753     -0.59808286979147      1.32157487999676
  O   7.06820752524021     -1.34220361775782      1.20608267524990
  C   6.96441384231817     -2.37076023547917      0.27437841526081
  N   7.44230194102480     -2.52621036605213     -0.86681198918329
  C   8.28717071873608     -1.75730919333748     -1.70352737394131
  N   7.89059903455960     -1.21011606807297     -2.76904443911189
  C   9.65726490756565     -1.62591895608646     -1.16758538966529
  C   10.28652505125724     -0.44963756010295     -1.21064310063761
  C   10.95101589396503      0.18081911690137     -0.06509893974782
  C   11.75783544651715      1.34423553657881     -0.29156622568518
  N   12.41644633532027      2.25533865151281     -0.51839600362838
  C   10.39590912361409     -0.00821091662752      1.15899488825483
  O   10.29020738392020      1.03870509321037      2.03722623496221
  N   9.00309033423970      1.58130437330706      2.01527847665788
  C   8.06609298992103      0.83977433919309      1.54820923287712
  H   6.27257466416198     -3.10040330419359      0.68311376400511
  H   6.89692926777741     -1.37327588084276     -2.92227678258440
  H   9.98183138466885     -2.41834396504933     -0.51562698262370
  H   9.98699766598273      0.27705697323551     -1.96265449260468
  H   7.08853472357528      1.30499340301467      1.51600615002462
