22
Coordinates from ORCA-job 17890optt
  Br  0.97434692958797     -0.03233545211454     -0.00385976562877
  C   2.83721896619925      0.03543438390136     -0.00293990519362
  C   3.54725041974409      1.18014248013086     -0.00221513207607
  O   2.86262140073508      2.34350723101735     -0.00197841279087
  C   3.48705913683700      3.56800228358725     -0.00120074276318
  N   2.80169886357097      4.61658194456963     -0.00065808903511
  C   4.99473983954040      3.61604609652301     -0.00088736285294
  N   5.59629479274406      4.73415809274781     -0.00046198595869
  C   5.67845944967664      2.34232671998859     -0.00108629468028
  Br  7.55290045367723      2.35862031345166     -0.00041788835843
  C   5.00681553972289      1.15618677102902     -0.00176142027843
  N   5.63808626934640     -0.06034983486082     -0.00207620895568
  C   4.89726151940932     -1.11577115380928     -0.00270360300174
  N   5.30416618121845     -2.41319284129729     -0.00313577534908
  C   4.20559462509748     -3.25586588929049     -0.00381814368517
  C   3.09772232434761     -2.49326091042437     -0.00382602413225
  N   3.52404081129772     -1.16741703645130     -0.00310796540815
  H   1.80379318504599      4.41567732023776     -0.00089973446005
  H   4.90809476649672      5.48757267714453     -0.00039985046327
  H   6.27548858279499     -2.67298111899762     -0.00320882397828
  H   4.30385630075164     -4.32555999546600     -0.00420199736155
  H   2.05648964215807     -2.75552208161712     -0.00415487358843
