12
Coordinates from ORCA-job 178optt
  C   -3.11363523685433     -0.08864482824254     -0.13444849680148
  C   -2.48057198899770      1.07548090387165      0.00201836102901
  C   -1.03678895273847      1.07232802615879      0.20190056999676
  C   -0.36753156263230     -0.04609135103113     -0.09820262454961
  O   -0.97954024821444     -1.19457776792673     -0.45729246473818
  C   -2.30678876203651     -1.34121745990748      0.05361418077098
  H   -4.17118487698563     -0.15962117019781     -0.35043696454700
  H   -3.00127783017779      2.01944167953828     -0.09579949062613
  H   -0.49444444790431      1.96871200635454      0.46025505775628
  H   0.71078818031077     -0.11568946251419     -0.15626576075785
  H   -2.73353191827067     -2.19249955345778     -0.47126931993991
  H   -2.22949235549861     -1.59162102264560      1.12192695240714
