22
Coordinates from ORCA-job 17904optt
  Br  1.52793980671194     -1.79729775880761      0.77496866282706
  C   3.28421310861506     -1.45753831286011      0.22878017600247
  C   4.39930852328676     -1.44168041207790      1.19819606412319
  O   5.19671189737774     -0.29863463198023      1.03617786271028
  C   5.63642771736856     -0.11021542626008     -0.26463508340147
  N   6.52019130432344      0.70266695801170     -0.60854844490166
  C   4.96057290955581     -1.10978545682718     -1.13724972226091
  N   5.66244685928855     -2.21009189429560     -1.30094177838499
  C   5.20745116778640     -3.48937382895337     -1.15125587702242
  C   6.07207623405759     -4.32764760140332     -0.40440068760634
  N   5.72127251228748     -5.02304707291234      0.62868204364254
  C   4.55229120262884     -4.79263907767262      1.31296289830354
  N   4.13362401852294     -3.71820080818903      1.87121470491913
  C   4.85583466796694     -2.53963213352868      1.80714647823575
  C   3.73949612089338     -5.98491299887159      1.53864325941179
  N   3.10706590864516     -6.92773368622211      1.68764374814770
  N   3.57431588674827     -1.25752003712105     -0.99201809589558
  H   6.90253189309561      1.20286958589155      0.19385940338385
  H   6.67138485315002     -2.07300002522743     -1.29005971141443
  H   4.14008957401914     -3.57970530817897     -1.02935665274906
  H   7.12924971334724     -4.36876164877468     -0.67520761481577
  H   5.83850412032305     -2.51111842373930      2.27639836674534
