21
Coordinates from ORCA-job 17923optt
  Br  3.22940852832038     -1.04377724031131      1.06395287451280
  C   3.14589857168206      0.54772155474332      0.10303833165495
  C   1.99665800007960      1.17498340076841     -0.19181600172817
  O   0.80104129110237      0.67524252366975      0.17400829447497
  C   -0.15881766426371      1.41388269302591      0.90529349361834
  N   -1.24135951860575      0.90233339353370      1.22902322792903
  C   0.27308672637334      2.81637723096780      1.17299780367866
  N   -0.36444392369325      3.75888897280033      0.64352468009526
  C   0.34952662928539      4.97095047346350      0.47051426213517
  N   0.67122197567151      5.71790545257529      1.42918336813564
  N   0.59426339776035      5.24993198798787     -0.89472579412078
  C   0.94139975912945      4.35230141172817     -1.72563563894846
  N   1.10362819134337      3.01141441141508     -1.42505488802733
  C   2.10370858324399      2.42439073028086     -0.96131286388901
  O   3.35561238685137      2.95728519863907     -1.01501210907408
  N   4.51607667100899      2.18479570382924     -0.75291937313684
  N   4.38198933111097      1.07248768995620     -0.27501456320915
  H   -1.33813317470483     -0.05497341525361      0.89147635203302
  H   1.25590182436015      2.95208511862450      1.64098109132085
  H   1.13095464487818      6.55497761486960      1.07355167157372
  H   1.03637776906602      4.62679509268630     -2.77405421902857
