22
Coordinates from ORCA-job 17922optt
  Br  1.54257604128831      0.07517381349525     -0.42163549435529
  C   3.31451567120565     -0.48437789396900     -0.31214385616521
  C   3.88984975211205     -0.97116575308976      0.83271941371422
  O   5.25314791730807     -1.04858531348262      0.85947158679809
  C   6.00146212328064     -0.78490256660832     -0.26807350230612
  N   7.18217351061077     -0.38278171117051     -0.27088506593455
  C   5.16879189259563     -1.18203472656198     -1.42500971283759
  N   5.46298012306400     -2.40013037907991     -2.03797708119201
  C   4.69364780794319     -3.40603342566899     -1.31124364621009
  N   3.45032897580709     -3.54900780373364     -1.32586767346171
  N   5.53342813915828     -4.24671001140338     -0.58477460150859
  C   5.55067295150359     -4.44847471113168      0.65950787672290
  C   4.92593181955652     -3.83518816937587      1.91191927474570
  N   4.10716995023111     -2.93759152836484      2.20975335643027
  C   3.22033128445962     -2.03820814310779      1.62355599047551
  O   2.03508133907829     -2.14509778972237      1.76636716610965
  N   3.96163451505742     -0.75286693700956     -1.47237267994251
  H   7.52866781916895     -0.20756619425822      0.67165688735347
  H   6.45439977043843     -2.61618865945499     -2.02341612049381
  H   3.00715139326105     -2.91984382924149     -1.99352355789780
  H   6.26247793702466     -5.21065839988360      0.98198620047027
  H   5.41357926584663     -4.30675986717670      2.77098523948518
