27
Coordinates from ORCA-job 17921optt
  Br  1.36743261114959     -0.21999711907333     -0.50471442801895
  C   3.15282620523152     -0.77399646766850     -0.49109397446635
  C   3.69011526131040     -1.50568225245052      0.50940414592711
  O   2.96203636284940     -2.02559343581869      1.55363690266871
  C   2.94686118491756     -3.41330962754154      1.62121348133435
  N   2.86714118326628     -3.99875683962927      2.72602736313649
  C   2.92226492649753     -4.20883233470255      0.31740874248946
  N   4.22454557118354     -4.49535245491886     -0.25571641542304
  C   4.54354276236218     -4.21276655714911     -1.56932917538050
  N   3.71836220878307     -4.08921316747253     -2.53372158116061
  N   5.91345367210222     -4.04412906209149     -1.83131178445080
  C   6.66518266606639     -2.96377626892486     -1.14317156722014
  C   5.69306494687805     -1.87317928729283     -0.80618651725725
  C   5.02658070165179     -1.95795329731303      0.36123865643909
  C   5.15267206754626     -1.05230594472832     -1.88299252841213
  O   5.67917549176879     -0.85537451624247     -2.95656540553764
  N   3.91999622792022     -0.45738727178605     -1.57379988071031
  H   2.87716600087093     -3.32952493488681      3.49621548423746
  H   2.35435421160895     -3.63870464382109     -0.41956041520884
  H   2.37444596711266     -5.12259298417989      0.54709067614278
  H   4.95673621956650     -4.82370562850081      0.35202391531280
  H   2.78477779658701     -4.40266497830206     -2.28624870627165
  H   6.00173793446097     -3.95240184354286     -2.83581956532367
  H   7.44794761238408     -2.63792865850853     -1.82388706047789
  H   7.13158646633402     -3.34341068154434     -0.23295665504758
  H   5.42364154057881     -2.56890270718119      1.16486372036848
  H   3.51235219901121      0.08444296527159     -2.32404742768939
