25
Coordinates from ORCA-job 17925optt
  Br  0.58617266278974     -1.38324013856146     -0.19187433916099
  C   2.25383849213662     -0.60136945513633      0.15770952417248
  C   2.35536284269739      0.78443690720026      0.12903457132403
  O   1.25922015800468      1.56249634251227     -0.08005308307185
  C   1.31877864713375      2.43148196887404     -1.15610890141288
  N   1.76754161914629      2.15341339273074     -2.29114088779369
  C   0.74312368073109      3.77866171256356     -0.81791364276775
  N   0.94960133265494      4.32872021866059      0.49597048073228
  C   1.81163835339190      4.15768739397739      1.38453585535649
  O   2.94944046321138      3.42158375740895      1.50336944657811
  C   3.68689747199050      2.90314459532112      0.40478151042250
  C   3.58050806648740      1.40356167683126      0.35806598171675
  C   4.67156334543694      0.58322456106112      0.59840663423355
  N   4.59455730666134     -0.73855910027330      0.63199108903026
  C   3.41869297864102     -1.32717114162651      0.42744225566703
  C   3.50783629394227     -2.82298740578875      0.51971165854894
  O   2.59851223221342     -3.59006717195960      0.39494471761428
  H   2.07217673124166      1.18337212648629     -2.37475862051665
  H   -0.33960564201087      3.70285922307559     -0.95456594170924
  H   1.09449295570456      4.47955767101121     -1.57606403085364
  H   1.68271213506344      4.68053499903201      2.33019646236730
  H   4.72732403484945      3.17664799695314      0.58235542819192
  H   3.37552257674049      3.37045005305877     -0.52982201410645
  H   5.64784734307474      1.01980837458529      0.78258324352783
  H   4.54124391806580     -3.15024855799766      0.72820260190940
