21
Coordinates from ORCA-job 17929optt
  Br  1.64425370404913     -0.78968186122147      1.70869843902177
  C   2.65232443646233      0.49306413568507      0.80038709192670
  C   2.19566016745635      1.54786470285227      0.09705057662399
  O   3.14072626640437      2.51091220659843     -0.29066337952725
  C   4.25142885632958      2.00469064144134     -0.90183556550621
  N   4.69426338658826      2.64425182613270     -2.03788752000361
  C   4.54999207890193      3.95328061644463     -2.53080725848722
  N   5.55223727518871      4.46908105641793     -3.09218918044566
  C   3.19881434768633      4.67509627181892     -2.51948882152130
  O   3.19205743436921      5.86272068445795     -2.71089027246812
  C   2.01352908071820      3.86046702363563     -2.22735945166476
  C   1.12659558956649      4.34606774233581     -1.36524546531274
  S   -0.02303870200035      3.36915229367531     -0.50544882814803
  C   0.74839067492037      1.75714896370171     -0.19817227980055
  O   -0.03889998687417      0.86542753632270     -0.05364609244133
  N   4.89136941450886      0.99242863066432     -0.48854592302899
  S   4.35921471820014      0.22362210853402      0.90601130270145
  H   5.59088070021855      2.26368507960615     -2.32056286816333
  H   5.29952340587274      5.38615449614551     -3.46163657899532
  H   2.02520758218901      2.81339593184835     -2.50502959143979
  H   1.14346956924390      5.39516991290267     -1.09173833331969
