20
Coordinates from ORCA-job 17926optt
  Br  3.01106308690069     -0.66451484350160      3.17473428160736
  C   3.39118709523710     -0.13133963225781      1.42600893247818
  C   2.48199000131002      0.44781802230078      0.63984671071886
  O   1.18849724282681      0.57367910791505      1.08627441987222
  C   0.62404214692394      1.76670378358580      0.88959109173578
  N   1.33597370965182      2.79792630731776      0.75983577716924
  C   0.98427658107165      3.78354523112793     -0.13478118815714
  N   0.76918216159024      3.51469165652748     -1.35837447150099
  C   0.83837484870806      2.13604589615286     -1.70054218076817
  O   -0.13164364024897      1.53496188973044     -2.06152975977068
  C   2.21574916895057      1.53857949861463     -1.67668456062818
  C   2.85778113233617      0.84389845506761     -0.72963341811636
  O   4.08865179554240      0.35899557817939     -1.14681277980321
  N   5.04954411665662     -0.12837390626309     -0.30573430240621
  C   4.72266538934004     -0.35295925387809      0.90194381856648
  C   1.03074236730146      5.15589559255337      0.32988051690174
  N   1.05631412372383      6.22712802712219      0.73161454181608
  H   -0.45974396605470      1.70385474976783      0.81161952031821
  H   2.75251423578065      1.64708132721595     -2.61321215504350
  H   5.50583840245158     -0.74661748727851      1.53595520501029
