23
Coordinates from ORCA-job 17938optt
  Br  1.12024465156042     -0.00126592762332     -0.39369035171112
  C   2.97306370952789      0.06667408284752     -0.16848870949158
  C   3.70749509685560     -1.07767745778837     -0.04988658961556
  O   3.09748264027004     -2.27648843291173     -0.09238565180688
  C   3.80734268031858     -3.45523187523093     -0.02335833959815
  N   3.25252124020138     -4.57424586232621     -0.10428265008783
  C   5.24653153646262     -3.28660840454371      0.15444391357118
  N   5.82127108121864     -2.15162050545406      0.21920146661026
  N   5.05406631874792     -1.04250738573416      0.11546952750609
  N   5.76586063978408      0.10708596983310      0.18053569837039
  C   5.10976137180847      1.22083599254491      0.07532226107615
  N   5.77152858213675      2.38616403127990      0.13829617194808
  C   7.18302247669729      2.44565253044296      0.34860660389141
  C   7.65883187008877      3.87019376087255      0.40030502924540
  O   6.93582643975830      4.81580038441081      0.26880909821485
  C   3.63293089688656      1.33852777511024     -0.11892024160710
  O   3.11473555249901      2.43290569569832     -0.21407333222435
  H   2.24408190548075     -4.49486488336487     -0.23006303556341
  H   5.85884436798546     -4.17373120861452      0.22963760223896
  H   5.23516552945685      3.24017704005674      0.04910011313796
  H   7.73486806867756      1.92398932889654     -0.44414589202129
  H   7.47456140109830      1.94731969509491      1.28234371971057
  H   8.74296194247870      3.99391565650338      0.57022358820597
