23
Coordinates from ORCA-job 17931optt
  Br  1.17276023474285      0.43981376047402     -0.72071850613597
  C   3.02703965638423      0.27748964314591     -0.46037655342357
  C   3.65843569164337     -0.95909043531244     -0.48111596301034
  O   2.98714129182355     -2.11136316237536     -0.80002978741633
  C   2.19161520263315     -2.81094357447024      0.10868028649908
  N   0.96238164461497     -2.94127975480657     -0.00476106481096
  C   2.99100102785452     -3.60649912457326      1.15434798037037
  N   4.34073841858178     -3.11945848487567      1.31301823772925
  C   5.16869490656005     -3.35211805386877      0.20943793390013
  O   5.35330199091984     -4.44632335624277     -0.25157058540994
  N   5.75900761003771     -2.20025650988842     -0.27884530882469
  C   5.04997062451192     -0.98296876731697     -0.30119889385300
  C   5.71396456365675      0.22563158736517     -0.13875493716042
  N   5.10611638519126      1.40491351519168     -0.14710842608181
  C   3.79097996265171      1.42861883624876     -0.29065220378969
  C   2.29126944189907     -3.62777970162600      2.44258827285209
  N   1.78007081666310     -3.61758836033524      3.46578727487710
  H   0.58713277204746     -2.40337855678585     -0.78501378862864
  H   3.05682615602811     -4.63247984300305      0.78106198166325
  H   4.39612945223809     -2.19056385946012      1.70736904347766
  H   6.44411080225396     -2.36467051797090     -1.00307318681879
  H   6.78888463478059      0.21962125013922      0.00536608572508
  H   3.30242671228198      2.39567347034692     -0.28043789172989
