22
Coordinates from ORCA-job 17936optt
  Br  0.97388015316657      0.30376674678316      0.24609807105864
  C   2.82536436438451      0.24151205478492      0.03017500055798
  C   3.58046432973785      1.32431131543107      0.01759919850138
  O   3.14962534301581      2.60740653119094      0.12989470986877
  C   4.21608972293544      3.46267268802391      0.00055060909862
  N   4.18884452542495      4.70728228025512      0.02160375468205
  C   5.44538210130359      2.62723014062503     -0.17051598776726
  N   6.63962885403372      3.00123231961662     -0.31899717411809
  N   4.98193614418121      1.32585822255699     -0.13408138554125
  C   5.71811345657417      0.12485638301681     -0.03172012417136
  N   5.18854191451653     -1.02229329161016     -0.02055282968272
  S   3.55293313362395     -1.35973519696291     -0.13073639116942
  C   7.20951483016125      0.24166171014881      0.08320678054445
  C   7.92861547566484      0.75559592397529     -1.15821493267099
  O   9.12213670853196      0.81740520924802     -1.18574096934758
  C   7.63148944994155      1.04215686402508      1.31544000966235
  O   6.92425516864600      1.16331204438680      2.27130144145992
  H   3.25267333531273      5.08377058739319      0.15842610295704
  H   6.68797724016969      4.01875644852104     -0.29818610303851
  H   7.58429838959758     -0.77398505222773      0.24468724288892
  H   7.30632252954585      1.03079232852391     -2.02565374031874
  H   8.64691282953018      1.46443374229409      1.25541671654578
