25
Coordinates from ORCA-job 17940optt
  Br  1.78864041369201     -1.16727500990115     -1.43670269665733
  C   2.78253359150436     -0.00921988411454     -0.36842734248475
  C   2.22397920291143      0.95907100712727      0.36855946844209
  O   0.86380332201988      1.08037356262018      0.49021518393169
  C   0.15661734686279      1.77462540677018     -0.46211857260193
  N   -1.08717003229942      1.71819776356297     -0.54643128341696
  C   0.97125256696960      2.67378089514398     -1.35506066370909
  N   1.13327307961937      2.34231569362087     -2.56549197526154
  N   1.47332024242692      3.77599098593000     -0.69681526692296
  C   1.04269753524549      4.18208654279108      0.59595562418400
  C   1.60944978460055      3.75505334393686      1.72424705691716
  C   2.79058752394420      2.91109590637175      1.85131190500884
  C   3.08802819503201      1.78631449919767      1.19227761806377
  O   4.36211862540895      1.27720726843843      1.41262021275545
  C   4.95188604439311      0.35530524427007      0.61307404404549
  N   6.15117119661979     -0.00063224077122      0.73110600143614
  N   4.14273572152295     -0.19463948700942     -0.36328037329007
  H   -1.47146505785027      1.06896407483822      0.14069918545095
  H   1.68845013811952      3.02775496561526     -3.07810696280694
  H   1.83620782973127      4.50197115915069     -1.29854288129544
  H   0.21873121981417      4.88701686902015      0.63679119202313
  H   1.21430815202741      4.16784936722740      2.64674553202058
  H   3.54318167639392      3.25263576124239      2.55366707769737
  H   6.61462815341026      0.51776278025400      1.47018887777843
  H   4.56303352787972     -0.91560647533312     -0.92748096130808
