20
Coordinates from ORCA-job 17954optt
  Br  1.21703054153105     -0.00757597721748     -0.30748180822600
  C   3.09546344879576     -0.00106849623888     -0.17374559725646
  C   3.76312919593258      1.22914052795392     -0.24476534627169
  O   3.05994258860460      2.36665847365604     -0.47786093888299
  C   3.72719955141467      3.57048803863137     -0.44309310250428
  N   3.21544806050903      4.62930910244397     -0.85867605509631
  C   5.08396488612461      3.53156502948886      0.20319222564408
  O   5.83503995431648      2.38463613463685     -0.18982717728634
  C   5.14520868413035      1.24164668716652     -0.13674841405104
  C   5.79918282591286      0.00893536601875     -0.00683314036118
  N   7.19143906326645     -0.01325809606180      0.07681478741324
  N   7.81527528137301     -1.05702087443260      0.17502663615179
  O   7.12072961554563     -2.28618578381470      0.20937453568226
  C   5.75298753583837     -2.42506053757842      0.16304950693976
  O   5.27683059387053     -3.50911693766412      0.22261520964646
  C   5.03118377083120     -1.14261350659216      0.03246883519229
  N   3.70456043314865     -1.14918445991964     -0.03745236098128
  H   2.27204619814088      4.48171419128889     -1.21767020806803
  H   4.96346481152297      3.52114151629560      1.29096309049848
  H   5.64887295919029      4.40684960193902     -0.09635067818278
