23
Coordinates from ORCA-job 17960optt
  Br  1.07179390879627     -0.21009968545316     -0.40702126251947
  C   2.90783433235942     -0.09069733070534     -0.15082017236460
  C   3.74128530028715     -1.12713382207618     -0.07871380479557
  O   3.42347152409437     -2.43643247061947     -0.18525135289778
  C   4.60648823784160     -3.17150297048006     -0.05534334389389
  N   4.67562389286882     -4.42079616598464     -0.10783085089305
  C   5.68520826161970     -2.20030784109461      0.14800812676813
  O   6.94219749755554     -2.64615003297355      0.36744015092892
  C   7.97244212432518     -1.98768151581679     -0.23012598884269
  C   7.96927854296204     -1.09906635998908     -1.25477575660974
  O   9.24972736959393     -0.73807387311849     -1.52890612237903
  C   10.05279246968545     -1.40644594428263     -0.67802246660053
  C   9.33180019829848     -2.19304325438236      0.15123991694198
  C   5.15905940470266     -0.95696419485395      0.14458305374714
  C   5.60187746674909      0.40518504202235      0.30251330870400
  C   4.68792932829598      1.37961367056064      0.20539864703085
  O   3.36821815128266      1.18541375160359     -0.02249417447252
  H   3.76215906494579     -4.84328794677991     -0.25897911050956
  H   7.19579038741960     -0.65648090427070     -1.85540916297501
  H   11.10822358890605     -1.22419856871069     -0.77861965937823
  H   9.69353690837025     -2.84396098912815      0.92787330090461
  H   6.63207027820171      0.65712738713733      0.49887899022812
  H   4.90819176083817      2.43198401939585      0.30337773387790
