24
Coordinates from ORCA-job 17968optt
  Br  3.08092556016692     -2.09431351357167      0.19562969133515
  C   3.22225825795190     -0.24562340813944     -0.06198057411832
  C   2.12352043424209      0.60522376786450      0.00316567830759
  O   0.91081846050289      0.10728610197884      0.32558359550878
  C   -0.08464724159371      1.00387783587426      0.64454857350790
  N   -1.29501119923499      0.70496216222747      0.56012328411362
  C   0.33049749467591      2.37772588772085      1.18507403461065
  O   0.96552011736380      2.47199279886224      2.20061498518636
  C   -0.28726234780117      3.48085923088268      0.42532625525079
  C   0.21828811329851      4.62202479408650     -0.03716726434214
  N   1.47403913296309      5.22842184262516     -0.02778409511940
  C   2.81129527854193      4.91964987974709     -0.15078136394545
  C   3.61936933188587      3.85537387581653     -0.33366846767516
  C   3.43792366082077      2.41941116918685     -0.35274908122244
  N   4.55816555373149      1.68956400726420     -0.42919519122948
  C   4.43279038645843      0.37564625329870     -0.31914797919443
  N   2.22051714070939      1.88999773605028     -0.23239117503179
  H   -1.42838840323328     -0.24957700567222      0.22540941303019
  H   -1.32687325876646      3.29833725131302      0.18042730833279
  H   -0.49938630672680      5.28661449150047     -0.50731428909430
  H   1.35686741340724      6.22448001207357     -0.11247336117353
  H   3.36435433230603      5.85201390762078     -0.13342716838543
  H   4.66279899436613      4.12637380146964     -0.41504446284370
  H   5.33661909396400     -0.21832288008035     -0.40077834580825
