25
Coordinates from ORCA-job 17970optt
  Br  1.22104844539966      0.26807878159833      0.77010252951565
  C   3.06881372005766      0.13130471662116      0.50065550131446
  C   3.83563269178371      1.24246836002109      0.54715725725088
  O   3.30064297376133      2.45453210173352      0.85770021656294
  C   3.76687375950955      3.60177047041204      0.25017359993006
  N   3.03980368816424      4.58629810785361      0.01621892160146
  C   5.26837292933722      3.63215291957692      0.02479351774353
  O   5.82491954345203      4.53937106465009     -0.51011380670354
  C   5.98455505833914      2.41853019597080      0.58379557846651
  N   5.19278174608747      1.23083829209310      0.30614539587483
  C   5.76340887498007      0.01816681226946      0.02989333728924
  C   5.07059990226639     -1.12464570106677     -0.01829456826983
  C   6.00883025237999     -2.23896795876916     -0.35881629172740
  O   7.28265148135612     -1.61077291331213     -0.50957742208486
  C   7.21327383617685     -0.22181224587500     -0.26296941174139
  C   3.64094079976066     -1.19535483373547      0.23279021101800
  N   2.91032825451262     -2.24406603462524      0.22156081004013
  H   2.06670364506679      4.39631991929655      0.26192486819818
  H   6.12763801277841      2.55732186617564      1.66244919551084
  H   6.95707861064824      2.33311979508075      0.10608184265496
  H   5.74140872507710     -2.74283886570199     -1.29265320731656
  H   6.06617710678199     -2.99229517872519      0.43348810993052
  H   7.55594251617944      0.33500392938552     -1.14289817330315
  H   7.85765952592813      0.04503611299745      0.58329062246737
  H   3.46591390021510     -3.07155971392513      0.01410136577717
