21
Coordinates from ORCA-job 17976optt
  Br  1.12221326354914      0.25393134338682      0.06855913879240
  C   2.97804545183545      0.27602514958077      0.07231895814475
  C   3.71936746485147      1.37141733994939      0.07265704957284
  O   3.32248245419084      2.67913774048534      0.07120751746077
  C   4.47809920014412      3.42151216782932      0.07175568337011
  N   4.25862801804233      4.77998292253795      0.07051938281442
  C   5.28309637901282      5.67696481237239      0.07041294826344
  O   6.44711008581214      5.38078512224070      0.07164314546142
  C   4.81199702283746      7.07319355929220      0.06865487100015
  N   4.43438185274735      8.15358519139865      0.06710338559886
  C   5.57485791752793      2.66182782591929      0.07345353949372
  N   5.11177607164040      1.33229552072240      0.07426012299105
  C   5.81064353931528      0.14927135014117      0.07462758766912
  N   7.06603014848601     -0.00815217757836      0.07449577690793
  C   4.93889678036457     -1.09351835659293      0.07549207759751
  N   5.39577482998950     -2.25458950407938      0.07720685931800
  O   3.57560339468911     -0.94978095262039      0.07428473377968
  H   3.29960514884015      5.09817794570514      0.06954701309992
  H   6.60933614821506      2.94416981341544      0.07426509492478
  H   7.58769833369832      0.86387681265561      0.07374273549187
  H   6.41435649421048     -2.20611362676153      0.07779237824728
