24
Coordinates from ORCA-job 17978optt
  Br  1.73014811752407      0.05104132329636      2.35641483483085
  C   2.48537328940084      0.49150559291893      0.70335583157191
  C   3.27001065524724      1.55569123348674      0.48935004619946
  O   3.39992766339409      2.55983277268340      1.41165087929704
  C   2.24373098329094      3.30346144583836      1.57521111684824
  N   1.82755033193976      3.63413162231082      2.70789118812474
  C   1.55620745443975      3.93459097361121      0.35952062132948
  O   1.42279269175222      3.19624755839065     -0.84404033816014
  C   0.46999990147424      2.23813864096763     -0.96612756184464
  N   -0.32796589091205      1.81522151748203     -0.09015825743975
  C   0.49076559539725      1.61358629497814     -2.36799164352075
  O   1.09512657869754      0.29260299172379     -2.35237768685818
  C   2.20497006667438      0.37035758577214     -1.58304188214741
  N   2.06625673526713     -0.27508998687346     -0.37706121052190
  N   3.15663352156601      1.15487210818204     -1.87157407273271
  C   3.92177027678343      1.70333766265565     -0.84045632810390
  O   4.92525710365217      2.33823966226382     -1.00978233220765
  H   2.42284010836668      3.25159889781564      3.44297125552135
  H   2.16620872231309      4.79304148556263      0.07689844262791
  H   0.58827071594750      4.29265300404105      0.70994776184906
  H   -0.22248342220743      2.26242741170896      0.82087730481114
  H   1.05172347939508      2.24994699015839     -3.04867715557750
  H   -0.52812760109646      1.45709459648307     -2.70742036277525
  H   1.20101292169252     -0.78453138545800     -0.25138045112139
