21
Coordinates from ORCA-job 17979optt
  Br  3.36183625718084     -4.75103380118184      4.55031816051114
  C   4.90908797206858     -3.69996837677580      4.47470060366226
  C   5.20177512560324     -2.94999645381530      3.39469698814133
  O   4.43394251033686     -2.98676052012509      2.24687084497722
  C   5.10151124460220     -3.22744947941995      1.06119892730758
  N   4.84637513686513     -2.63223546570069     -0.00434268262499
  C   6.14331710737648     -4.36533104366993      1.04314717884600
  O   5.85345496526766     -5.43784303580867      0.61433637145295
  C   7.48570831848912     -4.03013446319428      1.66452387183376
  N   7.96195560647807     -4.85968866548453      2.48433562348190
  C   8.92178852384298     -4.44315420806130      3.44343705161200
  O   10.08674728742250     -4.26863844164142      3.29631618703334
  N   8.17873397424465     -4.44218308645996      4.66012893301564
  C   7.40149312091425     -3.48822824418879      4.89925478191074
  S   5.93546798785724     -3.77026313667737      5.90394841027072
  C   7.35674762711879     -2.19299237667461      4.18735816242859
  C   6.29030838873413     -1.98628719038980      3.41206886313185
  H   4.11956693857484     -1.92554022899431      0.11747338064280
  H   7.88366711982439     -3.02627101043735      1.50220963197684
  H   8.20651613514566     -1.52484063158806      4.23744899085312
  H   6.20799865205229     -1.12716013971087      2.75556971953519
