20
Coordinates from ORCA-job 17977optt
  Br  2.31143489884993     -2.11371356115618      0.97460569334836
  C   3.05630500032962     -0.57109865657736      0.25882480379323
  C   2.49752677778710      0.64155851285917      0.41614548468708
  O   1.33062881846477      0.74628481138225      1.11981962469820
  C   0.57198496015214      1.74993099538907      0.57254096946628
  N   0.53676186749438      2.86908212088130      1.11101175330712
  C   0.41237790319766      3.98356535444122      0.27009174835758
  O   -0.49714477236780      4.73650388348164      0.14066177420367
  C   1.74602473628437      4.06250791194256     -0.48954048055701
  N   1.87757219960125      4.71361959802451     -1.55202857039052
  C   2.92122166484815      3.29741330963523      0.10470342827208
  N   3.72854724733044      3.99471676622784      0.77019107522189
  C   3.19430310402002      1.81192348940564     -0.14752211413553
  N   4.26381434187436      1.67633756253304     -0.84453310201291
  O   4.77278928187212      0.44339692993105     -1.07209128905975
  C   4.28583657193280     -0.72029059518113     -0.52029071280331
  O   4.86692293674462     -1.73310719975294     -0.73794317075354
  H   0.16343963417156      1.49172194188367     -0.40826178242081
  H   1.01350947195427      5.22455925611610     -1.76219321933222
  H   4.51714335545821      3.44708756853331      1.11780808611010
