24
Coordinates from ORCA-job 17971optt
  Br  1.00628551455111      0.38436753683153     -0.02482916541019
  C   2.86363962142072      0.21217103967001     -0.02837122294780
  C   3.65318436647291      1.28986797915664     -0.02693681125424
  O   3.29756499888291      2.59932814833899     -0.02343260727451
  C   4.46001936868083      3.32771972512665     -0.02392091408383
  N   4.27119258063585      4.68792009184988     -0.02147118428173
  C   5.31688296867388      5.57054133584102     -0.02252348008143
  O   6.46824005417454      5.22197706232632     -0.02544153982331
  C   5.53823712682487      2.54040342622657     -0.02710006767895
  N   5.03144967268138      1.22204107079186     -0.02896131314681
  C   5.61523718437384     -0.02606904544246     -0.03175365978690
  N   6.98620827955001     -0.02375603284279     -0.03189271309395
  C   7.83795693138126     -1.14331426902320     -0.03397050590651
  N   7.54965586409720     -2.36404542537274     -0.03676491471532
  N   4.92322937800549     -1.10436985647708     -0.03382063755002
  C   3.51387461985856     -1.10304106272658     -0.03318895440111
  N   2.82487631734428     -2.16960094169021     -0.03630399483963
  H   3.31922350050064      5.02143660333279     -0.01937295261458
  H   4.99224052172639      6.61909529448485     -0.02055099244172
  H   6.57475927536209      2.81353380248760     -0.02839103370497
  H   7.44699850413729      0.86965107052149     -0.02921633236307
  H   8.87985791559348     -0.82567858223227     -0.03281925446800
  H   6.54113136027536     -2.50946860426991     -0.03746770231338
  H   3.44605407479505     -2.97571036690896     -0.03949804581803
