23
Coordinates from ORCA-job 17982optt
  Br  1.07018413416322     -0.02036258738852     -0.39092441522218
  C   2.93543310748424      0.02758174119797     -0.21738726819713
  C   3.65376138551174     -1.15801534962133     -0.28300483061728
  O   2.98663042493945     -2.32107925232154     -0.53749588757910
  C   3.65343241932390     -3.51646719726115     -0.47650732539534
  N   3.16922366034902     -4.58336104334518     -0.89901982813683
  C   4.99444805711813     -3.44362929920368      0.22756670606364
  O   5.73199483899195     -4.56183607519714     -0.06393298845326
  C   6.72718999608585     -4.88394348425476      0.82050175790530
  N   7.51739947677729     -5.83284288377399      0.65699090684983
  O   5.73021317725620     -2.30838307424162     -0.20942007651628
  C   5.03931512259418     -1.14186387909652     -0.14769311000373
  C   5.72068557826642      0.05345292703298      0.01489855309657
  C   5.01085624091495      1.23649083029462      0.05958008236730
  C   3.61932924021353      1.23241747340186     -0.04466793010501
  C   2.91334510139783      2.47730516866443      0.02420231348765
  N   2.38083881887866      3.49146156784879      0.08504842992662
  H   2.24963257846580     -4.43496592589587     -1.31513652938311
  H   4.82124156434167     -3.34014449324291      1.30887384820409
  H   6.76915253309930     -4.24439993027501      1.70213229474964
  H   7.33891903493189     -6.32239358881528     -0.22055865941114
  H   6.79788012669858      0.03164579017247      0.10179626544929
  H   5.52189338219615      2.18033256532136      0.18615769092047
