22
Coordinates from ORCA-job 17985optt
  Br  1.04370249143932     -0.45976652989860     -0.24487493967666
  C   2.88590191855077     -0.13838008697569     -0.16703435892649
  C   3.77698559426755     -1.13105609943795     -0.06873337263099
  O   3.43539185788045     -2.44142455311742     -0.00271394110268
  C   4.59637384685984     -3.19641035622301      0.12023437318005
  N   4.64493045191396     -4.44692642550606      0.17770986634723
  C   5.70145865501748     -2.24437768713420      0.15546815568381
  O   6.96493404664740     -2.72584459806585      0.35996103319879
  C   7.88906354532307     -2.59980396246247     -0.61045061492990
  O   7.76647453245890     -1.94287708010921     -1.59717144090706
  C   5.22003015813197     -0.98958632294203      0.01999648759120
  C   5.81417433556090      0.32675119949933     -0.02890703558954
  N   7.21012417747038      0.44507277493364      0.07812183848865
  C   7.84042859458741      1.30856986993783      0.93149268809984
  O   9.02754552121649      1.49648694583337      0.94557138991816
  C   5.05163617052537      1.43300375080667     -0.14749937357905
  S   3.33592601897021      1.53450069393106     -0.21694810749221
  H   3.72119586496430     -4.86985635005615      0.12276238798045
  H   8.77445775260433     -3.17909375625574     -0.33418276461236
  H   7.78558088361567     -0.07477133215455     -0.57379714220854
  H   7.13890093478416      1.80264076753376      1.62368133102333
  H   5.52378264720998      2.40414913786326     -0.22668645985605
