21
Coordinates from ORCA-job 17989optt
  Br  4.18095013428059     -1.31875753387952     -1.95909640306270
  C   3.59544966800903     -0.22675647151943     -0.57841130312321
  C   2.45191415975571      0.46948115560093     -0.56681931063570
  O   1.56178976645487      0.53176628682279     -1.59954467921470
  C   0.79636766741003      1.67815845683312     -1.62923544725746
  N   -0.30672780905727      1.75797786224794     -2.20815694151778
  C   1.37887537546353      2.92060926058739     -0.95163647893212
  O   2.36451846508534      3.44608299602857     -1.37918591956815
  C   0.59476571260569      3.45332321556760      0.24111759151387
  O   1.42052176857969      4.08431627419950      1.21846602237260
  C   2.07872274390105      3.52376097177643      2.24044621701250
  N   2.73167805027048      2.44356553628100      2.40931072240774
  C   2.95567175840280      1.49548602388066      1.44347337957776
  N   2.13725033881804      1.25139488090058      0.49372283933668
  C   4.23675711464012      0.73033166475519      1.53731097446937
  O   5.05215335300675      0.79681854566397      2.39229821645004
  O   4.41903409055955     -0.15415449752466      0.48492019987281
  H   -0.58066545604993      0.87729299901054     -2.64431592226679
  H   0.01105290069609      2.65719734019349      0.69541414271409
  H   -0.07582293562577      4.23912320701474     -0.10897729214045
  H   2.08074313279357      4.22298182555912      3.07289939199161
