24
Coordinates from ORCA-job 17981optt
  Br  1.80676337479258     -1.30067857001804      0.80328626583275
  C   3.60567765540619     -1.21882838972248      0.31704770123906
  C   4.63631919361312     -1.37202236495107      1.19905082445906
  O   5.88713908521341     -1.04764673260580      0.78101854597409
  C   6.11573435284185     -0.62950882756006     -0.52174837636762
  N   7.03866221562292      0.13061604937175     -0.87032112859001
  C   5.11814171601131     -1.29778722270275     -1.38458997248358
  O   5.56009513779899     -2.12462067359439     -2.35778101040649
  C   5.15517991357647     -3.45657960544702     -2.04899523310737
  N   4.47145447896292     -4.16470905900515     -2.81798582913392
  N   5.59369684256110     -3.84301448373919     -0.80952291272384
  C   4.75073908469359     -4.65297664714110      0.05767823227406
  C   5.30602643952218     -4.65835528156461      1.48025995488227
  O   5.63497161556507     -3.32913148973769      1.91214720731359
  C   4.57751394937767     -2.50467380674166      2.16693308138401
  O   3.69197091899533     -2.75903756170551      2.91953467162984
  N   3.90498154970338     -1.34867538650177     -1.00493940221071
  H   7.58794533111553      0.45481160418296     -0.07483985728742
  H   4.16978730372529     -3.64571990472289     -3.63642405085146
  H   6.24485265684444     -3.23527290882545     -0.33736061469154
  H   4.70312234129622     -5.68288164339566     -0.29956030990005
  H   3.72770818937864     -4.25756018164242      0.04705686955898
  H   4.58581836285275     -5.10890883703741      2.16287042335841
  H   6.24669829052898     -5.20283807519256      1.52918491984790
