24
Coordinates from ORCA-job 17995optt
  Br  1.58484321093397      0.21277905997909     -1.12179890980363
  C   3.24999983970379     -0.04856802978200     -0.29644317450738
  C   3.82896944917527     -1.25755770587966     -0.27096414775148
  O   3.21401514284501     -2.36963920063513     -0.75490960254431
  C   3.73382854326154     -3.56173982308120     -0.42729901866860
  N   4.71521211224970     -3.77985301075396      0.33736749204817
  C   5.40945964074042     -2.68588126621077      0.86900799883903
  O   6.21699912490263     -2.77808391970729      1.74019798252065
  N   5.10224080615610     -1.43612158733294      0.26113276130770
  C   5.87912391230067     -0.26445019515539      0.52562941044043
  C   5.05039046005001      0.93666337882987      0.71057833712399
  N   3.84614358749368      1.03658878631451      0.29986087941304
  N   7.13542935251073     -0.18265924220390      0.55362925287054
  C   8.01436689959721     -1.27341811746170      0.20498954471585
  C   9.30083825130270     -0.72054509184783     -0.40593885552707
  C   9.04831694313229     -0.04522777587782     -1.72595473080377
  O   9.69277939455511     -0.24130127674204     -2.71864220781749
  H   3.19075687805334     -4.36659940670852     -0.90876477015276
  H   5.52726820375653      1.78585909020746      1.18730143254055
  H   7.53786831235011     -1.97973399038537     -0.48711780080642
  H   8.25162734288458     -1.83691342691874      1.10938471384418
  H   10.03954423258816     -1.50800099352643     -0.55054478617060
  H   9.70868088156175      0.02739583946528      0.28040840335549
  H   8.19729747789457      0.66400790541448     -1.73911020446611
