22
Coordinates from ORCA-job 17997optt
  Br  1.05758719373493     -0.68258826605766      0.15611248002836
  C   2.86956033387807     -0.23944974989430      0.02708374185884
  C   3.80202597905245     -1.18017985668611      0.04084757577954
  O   3.55836588695492     -2.51075854989429      0.13623087181020
  C   4.74203598572015     -3.21041528979104      0.04028648418884
  N   4.87984943770028     -4.44551608234555      0.08413613466216
  C   5.84331340082424     -2.19498869247305     -0.13018655290033
  O   7.01371062386749     -2.40388078305423     -0.30178697610590
  N   5.18847383588367     -0.98489063703766     -0.06239612066411
  C   5.74344839414145      0.31918928324641     -0.12180056197314
  N   7.12482496542868      0.34376599263601     -0.09163593970893
  C   7.91713039886114      1.29907386247063      0.49815342834042
  N   7.63844703206856      2.32989499119515      1.18172171798681
  C   9.38550765648132      1.00460812895437      0.29471864053978
  O   9.76510571321727      0.03481189964167     -0.29483878882604
  C   4.96186127613155      1.40105489051361     -0.19493651775189
  S   3.21510101357905      1.47087790342635     -0.13168887350416
  H   3.99358537492901     -4.93347479652666      0.20746625145071
  H   7.62004481625750     -0.48689872317277     -0.41196683005457
  H   6.64141672967624      2.46039502449251      1.33526510914477
  H   10.05623045279487      1.75080700422264      0.74635702671727
  H   5.41937349881710      2.37056244613396     -0.32614230101865
