22
Coordinates from ORCA-job 17994optt
  Br  1.19721163718840     -0.00171044046785      0.02394085508660
  C   3.05506077190434      0.08200161336793      0.11822898813204
  C   3.73208295354345      1.22042410111969      0.07743396462327
  O   3.27058315604537      2.48832518960702     -0.00409273315153
  C   4.34648478967015      3.36577084353971      0.02805464585506
  N   4.27450933662226      4.60773511160749     -0.01350575208262
  C   5.60692600509368      2.53226072053572      0.11506684462411
  O   6.75267097017455      2.89179614386163      0.13709891632606
  N   5.13095107223807      1.25293911489454      0.15574388821979
  C   5.83303738061883      0.04267176924505      0.15658886381154
  C   5.13445334185502     -1.09797501441552      0.20303566994196
  N   3.74209294103812     -1.12765377068793      0.31034456812882
  C   5.75091092027538     -2.41172455615421      0.14728225671619
  N   5.12214546816341     -3.53803332088565      0.10323948107952
  C   6.12466220162077     -4.48854718732470      0.02955748981806
  C   7.31820634354139     -3.86184621818241      0.03404390824397
  O   7.08766575368284     -2.52271695697186      0.10936001497821
  H   3.31272511288690      4.93867859619543     -0.07361526310549
  H   6.90835545683121      0.10182492979171      0.11168154252789
  H   3.30168490516885     -1.97616601800930     -0.02072071563873
  H   5.91256298002092     -5.54220428506486     -0.01906822886733
  H   8.34401650181604     -4.17885036560163     -0.00469920526740
