23
Coordinates from ORCA-job 17993optt
  Br  0.87855555112281      0.06515572747635      1.75414960903084
  C   2.50401412588255      0.30965291754397      0.81325040767585
  C   3.26567031274365      1.37735135028703      1.11482801287436
  O   2.79456901336022      2.42009844174013      1.84982710373036
  C   1.69431835009436      3.10859378831311      1.31828374544288
  N   0.97726813333769      3.80734344058049      2.06254514290982
  C   1.49889182304502      3.19231308536224     -0.19591230083127
  O   1.51064739459558      1.96603239370781     -0.92465406538556
  C   0.33592376907489      1.33085619435914     -1.10537346980289
  O   -0.73297422308678      1.84300966300740     -1.01329139729295
  O   0.48511754005360      0.05909432044669     -1.49686242193478
  C   1.49349147256990     -0.90902510709058     -1.14313115002411
  C   2.71368236252814     -0.38219460097103     -0.43088653270602
  C   3.90446735229469     -0.42679477039148     -1.06011954895260
  C   5.12172797719675      0.22167779711280     -0.59592654834880
  O   6.23574838923095      0.01531602251223     -0.98448125050613
  S   4.85941890007712      1.63886885382824      0.50585150836415
  H   1.27329021678928      3.74666763792039      3.03694726259869
  H   2.32643593622631      3.77289503824235     -0.60559154250183
  H   0.55884857765686      3.71519907163681     -0.34827196851941
  H   1.79484045260392     -1.36816355222585     -2.08114867483308
  H   0.98023737332610     -1.65057017379654     -0.53071787873624
  H   4.00280919927635     -0.92237753960174     -2.01831404225128
