20
Coordinates from ORCA-job 18009optt
  Br  0.55652470871006      0.20874299729076     -1.72043980068863
  C   1.86884345870708      0.72778952054800     -0.48665158904100
  C   2.98768999738813      1.45153160781562     -0.86632144756199
  O   2.95211333543407      2.13723521699213     -2.05580855734471
  C   1.97670280845040      3.10039340712221     -2.10947020406885
  N   1.15291722874404      3.46577293779850     -1.24190941757929
  C   1.02948046013843      3.20371777407990      0.12271693905764
  O   1.76362741023206      3.66112185184062      0.95267769341276
  N   -0.18629141420147      2.57596586961365      0.47814731540707
  C   -0.41674382915969      1.48761622372648      1.04703706347381
  O   0.40359257244511      0.43315613888318      1.35584076400864
  C   1.68697287638393      0.58028656637716      0.87819599653162
  C   2.75233623512112      0.79633010937939      1.73750813939809
  N   3.92609449140562      1.23837306542489      1.30617850379439
  C   4.01420035222631      1.64229273175422      0.04569742738854
  C   -1.77033400127243      1.16622616298657      1.46891531234638
  N   -2.83443256844372      0.90782806283530      1.79988137668404
  H   1.98235036452872      3.54769008701612     -3.09744638126505
  H   2.62225079590338      0.63933639553951      2.80170732271874
  H   4.90810471725881      2.17359327297578     -0.25945645667220
