20
Coordinates from ORCA-job 18004optt
  Br  1.24314319086019     -0.07535256868057      0.19160198570402
  C   3.10089690627074     -0.12905739665295      0.05180469384899
  C   3.81438264062073     -1.24942893461208      0.10143773649047
  O   3.15897739780094     -2.46100208077213      0.24436381764153
  C   3.86739267732990     -3.56757095135932     -0.00356044767909
  N   3.10663467699186     -4.69522544707011      0.00736139952918
  C   1.72559010604240     -4.77691041796378      0.15953867921261
  O   1.16244370436083     -5.83161938881896      0.15792320072473
  N   5.12684441184517     -3.63567633902898     -0.21554083436697
  C   5.84036607272591     -2.46461956401410     -0.13079449469170
  Br  7.69153601411922     -2.73303788350680     -0.31743222809488
  C   5.26660200507243     -1.25318065819967      0.04360897681434
  C   5.90162272675567      0.07210646094016      0.17954929465206
  N   7.06941169023947      0.36521333561655      0.55813418899038
  C   5.02793594525655      1.27981758015676     -0.14810196340663
  O   5.44590438538191      2.35413554121680     -0.40354427808671
  O   3.66352878782188      1.09530406413125     -0.11792684401136
  H   3.60928585010970     -5.56423990402157     -0.12130626860084
  H   1.23545056615796     -3.80360848021569      0.27598426586306
  H   7.61805024423650     -0.46004696714478      0.79089911946681
