19
Coordinates from ORCA-job 18003optt
  Br  1.61876932518864      1.81785332742921      0.21638385637468
  C   3.13707113106591      0.82253197136488     -0.19876118460378
  C   3.23307210685759     -0.48799870104409      0.00397559945671
  O   2.35360908115742     -1.23828491758185      0.69709711134092
  C   1.89575670505064     -2.45981520114042      0.19932785095261
  N   0.72397166259943     -2.83082226418249      0.38282057182161
  C   2.90937147558693     -3.39255204960645     -0.47236667807826
  O   2.53786916553761     -4.15641680448260     -1.30696885112259
  N   4.22428066003279     -3.38111797427000      0.00475608690034
  C   4.88943869235489     -2.31873799259929      0.04743912601583
  O   6.19898679482740     -2.30181944541919      0.42100242087569
  C   6.70631143631428     -1.00925053562590      0.44240022392544
  O   7.81249604829951     -0.75114602192232      0.74727215907350
  C   5.57565907877166     -0.15180993720500     -0.00466356216534
  N   5.50782071478497      1.09701328947046     -0.15465315000974
  N   4.28623766991316      1.52583523020692     -0.63102813009389
  N   4.51551729597931     -1.03343411851800     -0.27911616676253
  H   0.17376383430163     -2.11881328152527      0.86501456059699
  H   4.20999712137619      2.53078542665141     -0.58093184449819
