20
Coordinates from ORCA-job 18002optt
  Br  1.06540596895298     -0.13369836628672      0.24870007883883
  C   2.92341777802802     -0.29465450840068      0.10228278380040
  C   3.53519845600837     -1.47823007505913     -0.08955870453332
  O   2.75404428171816     -2.58574923882749     -0.18949996841722
  C   3.10316744711723     -3.67643559701967     -0.95612517788602
  N   4.17241839997266     -4.31348652703061     -0.87911675876038
  C   5.06704160864803     -3.88825691886373      0.14196057975832
  O   5.31468494075661     -4.57643958738151      1.08179759208183
  N   5.68639289635528     -2.65737142622609     -0.08055316356853
  C   5.03534023197205     -1.56865446496981     -0.15861279144790
  N   5.78962025768967     -0.40192833512073     -0.27841173511838
  C   5.17958333342534      0.70050604625763     -0.09993605076461
  N   5.74444221910551      1.94051436074282     -0.10369983612990
  C   4.77954094616394      2.92764144589598      0.14750605025796
  O   4.99143274867670      4.10236570491184      0.21951264546371
  C   3.48408875526358      2.19469660507632      0.29213329841577
  C   3.73080930845653      0.88896386752391      0.14815948137837
  H   2.29021998248205     -3.96027135181401     -1.61573422938033
  H   6.72956982968257      2.12296770392459     -0.21259979863425
  H   2.54358060952466      2.69352066266711      0.46279570464564
