21
Coordinates from ORCA-job 18013optt
  Br  2.34583755161755     -2.52609394329697     -3.13413677968214
  C   3.18480978684086     -1.22004465603440     -2.08380469700411
  C   3.00161429923080     -1.15462815397438     -0.70543006639996
  O   2.17642110965106     -2.03375404997041     -0.05251539859685
  C   1.74719653873384     -1.77319245354143      1.21703828326710
  N   1.71480514203801     -0.74105393057789      1.92523314598782
  C   2.07003729028991      0.55868984317454      1.55315967597972
  O   1.40533911016975      1.26289999952177      0.86317368655993
  O   3.15479671745081      0.98004147554621      2.26992328664578
  C   4.03248712540401      1.86893543888566      1.70443484934441
  C   4.58769555931941      1.79368182180919      0.49000912602704
  C   4.27300435121689      0.74842623002002     -0.48033449549031
  C   4.54168885483846      0.76855218452780     -1.84490753665641
  C   4.00290397658073     -0.24259539839951     -2.63465056417236
  N   3.58006636987477     -0.26445924573282      0.02949097347768
  C   1.20903201982838     -3.00521769878699      1.77785536684333
  N   0.78526843053021     -3.96669362864406      2.23038974292951
  H   4.29654324123752      2.65716781112803      2.39609290719047
  H   5.27183789706836      2.58359754546828      0.21312145234415
  H   5.12168969988178      1.56451898333963     -2.29070909341966
  H   4.18292492819685     -0.25477817446228     -3.70143386517513
