23
Coordinates from ORCA-job 18019optt
  Br  3.53513480555908     -1.81163713082953      1.96272114382109
  C   4.76760567455148     -0.85711563851380      0.94868969539210
  C   6.08896517293510     -0.74961213275356      1.17265868888091
  O   6.75897480008212      0.11712796993996      0.29616940008255
  C   6.34467475831582     -0.07497906296915     -0.99832028750159
  N   5.12650187769718     -0.24277431845458     -1.28791180499476
  N   4.27457055761229     -0.26160692233304     -0.19538951214527
  C   7.35048682962164      0.02576882986558     -2.11395963189814
  N   7.03605073493822      0.41158840484189     -3.27784008480364
  N   8.66554348597624     -0.24035127779410     -1.80871173330691
  C   9.12726701978985     -0.94511011462082     -0.70310354196124
  C   8.51851346178386     -2.02455564834337     -0.23272339830090
  O   8.80900872939372     -2.47100886475080      1.04594682086718
  C   8.38740304382909     -1.61493514451331      2.04527866604544
  N   9.13951313327882     -1.10649042708220      2.89986407260047
  C   6.86727530273544     -1.48313994346079      2.18298024855932
  O   6.34192676152337     -2.02718349285147      3.12020239509204
  H   3.33722001468800     -0.52347190005003     -0.46114177271595
  H   6.04853725101587      0.64465360642157     -3.32587912432123
  H   9.31670044090124      0.07748603920972     -2.51129820186188
  H   9.95785396047220     -0.50883180569441     -0.15772872867201
  H   7.73033444614332     -2.55733794868853     -0.75322792398672
  H   10.11393773715594     -1.35748307657521      2.72672461512914
