20
Coordinates from ORCA-job 18014optt
  Br  0.74275714672811      0.04931754610918     -1.89348434275497
  C   2.01930981506881      0.49911688780978     -0.61020509612361
  C   3.22562032427822      1.14006914487698     -0.90096944455437
  O   3.26343424738723      1.94949600012437     -2.01846718583175
  C   2.25262359439320      2.86200020372750     -1.96352752424261
  N   1.65143826087549      3.05664118657959     -0.87970464996171
  C   0.38617789700201      3.59861551870845     -0.78459414044811
  O   -0.00303770325384      4.65832390101067     -1.14001062879918
  O   -0.50470559904032      2.69809686236030     -0.22027113964570
  C   -0.41133629146633      1.87971315003264      0.88171932573915
  C   -1.62960655743631      2.11858350288465      1.74267535094393
  O   -1.88707874709309      1.47651210785586      2.71751292704156
  C   0.45401562479956      0.94172537196304      1.29129025646510
  C   1.76097153446473      0.60377583512321      0.73478026300749
  N   2.80257617747472      0.59996784549283      1.59832274024442
  N   4.01078328176771      0.74210501731968      1.17807541415437
  N   4.20078181505606      1.21635063950864     -0.04538754307737
  H   2.03980925953904      3.29466471326432     -2.93842982905756
  H   -2.26477921682273      2.94842238016487      1.39051561065923
  H   0.19424513627771      0.51250218508341      2.25315963624167
