22
Coordinates from ORCA-job 18018optt
  Br  5.38490774660784     -0.42850558565140      3.40209668406077
  C   5.53843847840364     -0.63863258315958      1.56097438403036
  C   6.33180823724353     -1.52374213746106      0.97619032643545
  O   6.33834358002667     -1.56110777227909     -0.41069774993241
  C   6.15218962011812     -0.29903361676745     -0.95632185394416
  N   5.40106966029552      0.57587243742899     -0.45452348348847
  N   4.76717864625475      0.20325061199226      0.72649281109679
  C   7.01376282966657     -0.04061006052308     -2.15862624480767
  N   6.61857045132421      0.06743397417131     -3.34944153115520
  N   8.37557803162043     -0.02801692418107     -1.83661479615917
  C   8.70140146947086     -0.03504765699548     -0.48993836916538
  C   9.36808984215329     -0.97522199550284      0.18241951754661
  C   9.02416539773160     -1.00542004048331      1.61153044991055
  O   9.04768013555314     -0.10467630603528      2.40216871862419
  C   8.36544622949888     -2.34722263860363      1.98682874965771
  O   8.90442174668160     -3.23207705082866      2.55258857502860
  O   7.05201065440996     -2.50138670346088      1.57053463956430
  H   4.41720607134743      1.02647681933830      1.19586861731257
  H   5.60772786838555     -0.02203062841826     -3.40977290011188
  H   8.98819634181892     -0.45898688917019     -2.51420732667638
  H   8.20785913531371      0.74419506621196      0.08422655539930
  H   9.74694782607367     -1.87151031962155     -0.29277577322647
