21
Coordinates from ORCA-job 18016optt
  Br  2.47228513224199      2.03552578698363     -1.59935285732302
  C   3.94312472048705      1.22829455888401     -0.79652381694128
  C   5.06179433978541      1.87156713515900     -0.47201368042875
  O   6.11325166136439      1.19598509508777      0.11277827367071
  C   6.36012569730310     -0.06497509774196     -0.30575930522326
  N   7.69879709807299     -0.32796433368991     -0.37889759784407
  C   8.68414290397461      0.59320240455904      0.07192461923285
  O   8.71972623206375      0.96479094178332      1.19391289730142
  S   9.73403107684608      1.31199617569131     -1.25132529389202
  C   8.72105923895455      2.77070742990147     -1.17694974426053
  C   7.46160295625141      2.71026975183118     -1.60383712859762
  N   6.50158592574163      3.66491261425508     -1.26292048954911
  C   5.39073349716961      3.28882943748415     -0.78190880452896
  N   5.48863335431463     -0.90076359670497     -0.70239537165360
  S   3.89679921561736     -0.53316879339825     -0.53960112463945
  O   3.49724703170278     -0.77087157810085      0.80769948799756
  O   3.19605937974090     -1.11933136266173     -1.62775043183613
  H   7.95531206953429     -1.03674507253307     -1.05189984912766
  H   9.08113840516973      3.59867819613724     -0.58022323288591
  H   7.13046799197967      1.86819970326636     -2.21180232273575
  H   4.61908207168401      4.02986060380714     -0.59515422673540
