22
Coordinates from ORCA-job 18025optt
  Br  1.36665358836438     -0.29403854099851      0.60816920373250
  C   3.20893748294075     -0.18352521042990      0.29439570831324
  C   3.83740261989528      1.01618306368136      0.15755245614636
  O   3.34314823462897      2.26276697693178      0.22262914175413
  C   4.42308390129574      3.06485095893576      0.01145178499973
  N   5.51713079807184      2.44666103691690     -0.17550152483002
  N   5.16389840887506      1.12191582603049     -0.07896454140790
  C   6.06527846543463      0.04798226364736     -0.24945271172882
  N   7.23908174505209      0.39306604785561     -0.62724817925751
  C   8.33726924993927     -0.42404018249554     -0.75881263336105
  O   9.22683290863730     -0.16617214490141     -1.53506129456981
  C   8.50887968537941     -1.61749078067644      0.12172863957961
  C   7.57730248945975     -2.52116266881933      0.40878423557451
  C   6.15890457514267     -2.50553065789826     -0.00229748171055
  N   5.51230408132396     -3.57376321912225     -0.24876465024537
  C   5.41106714189259     -1.21814702346511     -0.01975977788612
  C   4.05456988921835     -1.29520288542196      0.21252990889722
  H   4.27111499271602      4.13014073453796      0.01985827718253
  H   9.53741582584196     -1.79900774493445      0.41041773338732
  H   7.87325191111533     -3.42081578548362      0.93974526237054
  H   6.10484271591166     -4.39502800898855     -0.13577171382949
  H   3.63662928886293     -2.28564205490187      0.34337215688895
