22
Coordinates from ORCA-job 18028optt
  Br  1.33692510066618     -0.56879162439829     -1.55457529273910
  C   2.98692445818986     -0.40226739267181     -0.70267994036866
  C   3.67497450027879     -1.48944711867460     -0.28974969497093
  O   3.36814746494291     -2.80551887360512     -0.37971747648604
  C   4.41139933320517     -3.44713449417095      0.20843653700365
  N   5.33095002715426     -2.68570884431309      0.65024384794773
  N   4.87984696313398     -1.42595942380668      0.33826324440905
  C   5.50382835627836     -0.24005340904077      0.59062533870599
  C   4.88855887681013      0.89419168321069      0.20644550003510
  C   5.48764951852515      2.24478300203355      0.40292795960393
  O   6.61618642494606      2.14856981468749      1.28284769628243
  C   6.91985374657582      3.24079431798568      2.00067991068148
  O   6.35434332926472      4.28754242715171      1.94167655880347
  C   5.99637710386346      2.85459219034923     -0.91006129032523
  O   5.98344991183528      2.28315341525044     -1.95685735082591
  C   3.57608717430103      0.90993354902049     -0.46870140303991
  O   3.04941344569851      1.96352975136737     -0.78429978014644
  H   4.38390252761515     -4.52161894717536      0.25743117759315
  H   6.46026475703197     -0.29817965499772      1.08740721318333
  H   4.74541333801602      2.92989197404789      0.81994241653615
  H   7.77215408473529      3.01740386989082      2.65214221847475
  H   6.41534955693180      3.87029378785900     -0.79742739035798
