20
Coordinates from ORCA-job 18029optt
  Br  0.89771328449696     -0.30156282630177     -0.26987645122244
  C   2.75269662907405     -0.09539446484758     -0.09220228693666
  C   3.32516851734159      1.12081121152984      0.02211825770647
  O   2.81719447431942      2.37082244995907      0.05277936019034
  C   3.90535250146752      3.18107011689676      0.18956160438868
  N   5.02326174886672      2.55889703830505      0.24579601934605
  N   4.68126106644610      1.25184352955207      0.14267230439895
  C   5.59433855199712      0.17602899736365      0.15564135963577
  N   6.84714696282190      0.27690063415413      0.25497396968552
  C   4.84668612855588     -1.09883102645359      0.03384859214301
  N   3.55816592040365     -1.18051938272270     -0.07891808253178
  C   5.62810173188872     -2.29500605139658      0.04336341366678
  C   6.30389922764356     -3.28360228777231      0.05356244620428
  C   3.66929765512280      4.64534049775341      0.24910357128885
  O   2.56184441916666      5.09343054672687      0.15530079987863
  C   4.85133874298172      5.60404695571116      0.43844184475309
  O   5.98181870980559      5.26236805664706      0.58696731377658
  H   7.15129899754599      1.24610496923187      0.32908932485486
  H   6.90446540655751     -4.16201587681320      0.06282814636394
  H   4.51694932349646      6.65626691247680      0.42794849240909
