23
Coordinates from ORCA-job 18021optt
  Br  4.99094390831012     -1.28201119663534      3.34425159347415
  C   5.46460352549276     -0.77028845609141      1.61522680205616
  C   6.64942139760543     -0.26708919407047      1.25447006918244
  O   6.74326717940031      0.08499634110062     -0.10855772281569
  C   6.11632057255221     -0.83516429896977     -0.90756763083840
  N   5.01363822418758     -1.37354059651325     -0.60973063151367
  N   4.50845167632084     -0.99045888146053      0.62140265596312
  C   6.79560455456477     -1.22705834649205     -2.19741725536361
  O   6.13405611862906     -1.43545472532574     -3.17401954763989
  C   8.32907050900972     -1.31712456261207     -2.29071278410883
  N   8.86729967748733     -1.18001343441274     -3.42900635003164
  C   9.17143266748812     -1.48510919092864     -1.10394797316686
  C   8.71180498949948     -1.90695315002662      0.06912268236174
  N   9.45501337069314     -1.99702623460357      1.24535374149126
  C   9.11851594241199     -1.27722181543087      2.39402110554831
  N   9.68353794258591     -1.37785857409425      3.51475758382926
  S   7.97076613068723      0.12412046743056      2.31548825050987
  H   3.73400381041024     -1.57936604691767      0.89013484336049
  H   8.14782711913620     -1.05414389255200     -4.14535526485519
  H   10.21039978523374     -1.20331391659220     -1.23264784405105
  H   7.68461545898354     -2.22536348498890      0.18763678815926
  H   10.45066171078296     -2.13721112822525      1.13968590784838
  H   10.40274372852719     -2.10134568158782      3.51841098060039
