19
Coordinates from ORCA-job 18037optt
  Br  1.21908392760177     -0.20559958396304      0.29173876847711
  C   3.02199588534869     -0.21125012011258     -0.12637105588476
  C   3.77929367680758     -1.30230971788888     -0.39136022230178
  O   3.62663978916515     -2.66034782629210     -0.24823356976162
  C   4.91058597371131     -3.25172044877313     -0.16738788034355
  N   5.16672348596181     -4.43666451644085      0.09928336073025
  N   5.83775587768291     -2.23950751654058     -0.46570906942237
  C   7.14870456349383     -1.85910360699235     -0.05427202940992
  N   8.15075078372443     -2.51622123434052      0.26111383308074
  O   7.16185293569506     -0.45121131851211     -0.08257919726618
  C   5.88536909896785     -0.01167253414451     -0.32504725628020
  C   5.12765584873852      1.16468699343935     -0.10290712880038
  N   5.36149865286505      2.44375068780904      0.08578221949076
  N   4.16497920589690      3.02471329127519      0.20401815823354
  N   3.19486615608298      2.19527267937731      0.09491870878435
  N   3.74285359085581      0.98205744585681     -0.09591473169873
  C   5.13224236411889     -1.08157167391785     -0.57568675834031
  H   4.33741506948193     -4.98710588359956      0.30051865659372
  H   7.97973311379948     -3.51719511623963      0.21109519411932
