21
Coordinates from ORCA-job 18031optt
  Br  0.84117658899106      0.27022204784279     -0.07723927974209
  C   2.70662315826292      0.03843076728027     -0.08185352695643
  C   3.50749684665195      1.14165689515394     -0.08651017958460
  O   3.15700751059243      2.43936593951692     -0.08948500594168
  C   4.34284724722911      3.11210284324258     -0.09353239310167
  N   5.37389535866740      2.36956245488102     -0.09335677068961
  N   4.85961899691700      1.09642913969334     -0.08896957983382
  C   5.66333754705296     -0.09641620633869     -0.08741844573529
  O   6.85610499055628     -0.02514118039747     -0.08899543277024
  C   4.78959258163440     -1.25674595035217     -0.08399664645616
  C   3.40482061137599     -1.18512843227558     -0.08118328942025
  C   2.84319877820320     -2.57178112090976     -0.07804751616694
  N   1.66600735194078     -3.01912394194790     -0.07465340064340
  C   4.02711682178798     -3.49769363970683     -0.07986477522277
  N   4.02468587840203     -4.75291428388195     -0.07894421835943
  C   5.26439486248803     -2.65064627450917     -0.08330649087759
  N   6.46223024945232     -3.04588605861714     -0.08540771849647
  H   4.31136696180406      4.18783506350211     -0.09648911415552
  H   0.95608520623631     -2.29086546734253     -0.07385546381096
  H   3.06018081482738     -5.09883397215688     -0.07653724752430
  H   6.46921163692638     -4.07042862267691     -0.08435350451078
