23
Coordinates from ORCA-job 18036optt
  Br  0.99148744384042      0.19907022978551     -0.09823084711397
  C   2.84673576624737      0.11975217325644      0.02718096115942
  C   3.62432632244358      1.20236625954042     -0.08027326225449
  O   3.26518207109894      2.49343362256854     -0.27592629105049
  C   4.41185538812032      3.28363582665307     -0.29035108877679
  N   4.44681264128578      4.53061407579301     -0.38455432996320
  N   5.49836488322291      2.44514107537638     -0.17260816432049
  C   6.85044049119034      2.87933230439188      0.09197551169830
  C   7.49374244049712      1.95784807412552      1.13641865250985
  C   7.92189482348193      0.62036099093563      0.57730543167089
  O   9.04840814465035      0.31824148563972      0.36078833380405
  O   6.94991560433121     -0.32503341471532      0.31297197705216
  C   5.64034853246075     -0.02874546254030      0.22682381140533
  O   4.89862439338202     -1.14179864652523      0.35982937730070
  C   3.50358349973809     -1.16939281686537      0.25497306032945
  N   2.88958813556338     -2.25845301141408      0.36603080446402
  C   5.05119480611399      1.14487903437170      0.00081261152049
  H   3.51828497453050      4.93533817619845     -0.43894940817958
  H   6.79687583016192      3.90198849172844      0.46343337426529
  H   7.44490703206515      2.88452453125241     -0.82485689711388
  H   6.80568108222890      1.81535623535647      1.97190404115266
  H   8.40780420319117      2.41848113156179      1.50263655646873
  H   3.52594149015378     -3.03594036647510      0.52466578397155
