22
Coordinates from ORCA-job 18033optt
  Br  0.71872914145086     -0.02811386934985     -0.48751268410009
  C   2.56250542608812      0.04087930921809     -0.26919101631817
  C   3.23889058507157      1.18937120319359     -0.16042218912690
  O   2.85790054801920      2.48207648507406     -0.17083707202084
  C   4.02859639341385      3.19348543514660     -0.01391108723703
  N   5.07978220306181      2.47045003399799      0.09233321233780
  N   4.59931312499684      1.19907823478792      0.00027013618606
  N   5.36818274477085      0.11417376918483      0.08055621550300
  N   4.79916485628723     -0.99377644129030     -0.02023030966034
  C   3.38423102647747     -1.16275502652814     -0.22197612476457
  N   2.88816530216353     -2.32034813993205     -0.34963428130666
  C   3.76153281031613     -3.47358889243736     -0.30070497337631
  C   2.92609102925248     -4.70732859005154     -0.64241309210102
  C   3.73002819114247     -5.92709054057959     -0.62151922169667
  N   4.38164217344511     -6.86962164737675     -0.59928113318380
  C   3.95462808834683      4.60409908874659      0.00687937178783
  C   3.87480658374448      5.79669604142648      0.02140358229046
  H   4.20263214405591     -3.58806156416006      0.69350395743083
  H   4.59452807247075     -3.38013752336012     -1.00212513292458
  H   2.48542413658212     -4.59009537000380     -1.63323202931041
  H   2.10627414788246     -4.80854699551771      0.06942421537782
  H   3.80995127095989      6.86015499981111      0.03461965621360
