28
Coordinates from ORCA-job 18046optt
  Br  0.84096810339217     -0.18768154246144      1.18749358700029
  C   1.72142889407140      0.72267159794992     -0.20293400154765
  C   2.67577167993344      1.67599951480984     -0.03465672766298
  O   3.50825352015968      1.94582679937053     -1.03923556314113
  C   3.45765324372748      1.08211084528496     -2.15757312196759
  N   4.49947400338335      0.75732121608545     -2.76613402257424
  N   2.16536076712297      0.76850953114035     -2.53904699967636
  C   1.32305174327780      0.58831699480849     -1.58569910960277
  C   -0.15162055740949      0.74979369836958     -1.91211906779356
  N   -0.45747718703884      2.17426038414798     -1.69530818677166
  C   -0.72557252633322      2.69244363395325     -0.33757356468222
  C   0.13754081354754      3.98625065293611     -0.26574285839733
  C   1.09999193339749      4.20485239669557      0.92247780885884
  C   1.76362069948290      3.05311681095061      1.66851135201429
  O   2.90081054125668      2.44902421865561      1.00594964975092
  N   0.82559243146881      4.06170090594799     -1.56153837840614
  C   0.44229462392729      3.07886390102013     -2.26135343075203
  H   5.32427303198457      1.13589567986501     -2.30733019501104
  H   -0.80296139698585      0.14807635343543     -1.28278934341238
  H   -0.31568305540409      0.49658398436374     -2.95781453531859
  H   -0.47707692398604      1.96304704247165      0.42785685920996
  H   -1.78630943712356      2.92223902642957     -0.24285913014693
  H   -0.53650979867764      4.84529869364491     -0.24081647571099
  H   0.53984746945034      4.72284832064189      1.70691841049150
  H   1.86833245503545      4.90234572504532      0.58202540707451
  H   1.04890238397584      2.28389739929331      1.95071483995654
  H   2.20239872358153      3.44752646654065      2.58213925350303
  H   0.79064382078199      2.89385974860358     -3.27056245528427
