28
Coordinates from ORCA-job 18041optt
  Br  1.00358084591540      0.68726579562186      1.66335338709426
  C   2.30268831775410      1.84260301774575      0.95421101761045
  C   2.88926070671618      1.56314213938727     -0.24374751662177
  O   4.07441764287682      2.08487215729900     -0.54663494791739
  C   4.70112636976230      2.80774497026414      0.50775814027690
  N   5.92912417806830      2.71647522805647      0.71640909818347
  N   3.81330544227786      3.65896996900279      1.11987658136176
  C   2.63090207323442      3.19564865175785      1.34908333336987
  C   1.56489003897080      4.24819092266027      1.64507962105247
  C   0.12061464725110      3.77046146411466      1.68367453065658
  O   -0.22645567788781      3.15152328746112      0.45643718223266
  C   0.08224905508183      3.89016892891929     -0.70885664425638
  C   1.09578615599258      3.15017874909229     -1.61694133618423
  C   1.01869793477005      1.61163409589654     -1.61570963327885
  O   2.29936488112175      0.98314190764260     -1.27407475075633
  O   0.49687362667096      5.18476151620815     -0.39037406220574
  C   1.59461458396630      5.31623029957400      0.51012607346857
  H   6.35997000998448      2.03958302626058      0.09212215893731
  H   1.82969010815192      4.73669294337925      2.58362686358184
  H   -0.06517605920680      3.03257764404655      2.45793857913477
  H   -0.52303706841830      4.63486509498851      1.87115716231186
  H   -0.85404770174959      4.02493913898225     -1.25451604642487
  H   2.10457175182105      3.46991403463083     -1.34939745904474
  H   0.93930630833033      3.52617178026669     -2.62854781015986
  H   0.81266817451200      1.21652414042193     -2.60565263586256
  H   0.26385999179221      1.25422774164543     -0.91814101739286
  H   1.46909632554369      6.30621885253059      0.94528838973414
  H   2.54505733669607      5.29227250214328     -0.02154825890133
