24
Coordinates from ORCA-job 18048optt
  Br  3.05036001705447      0.68219704593838      2.38628126098412
  C   3.43827091925002     -0.28150845095100     -0.25337065487685
  C   3.26952375733016      1.07736172613054      0.45544931250676
  O   2.58104864775047     -1.07210680832396     -0.45674486440735
  C   4.89848219649078     -0.37715244636147     -0.67912741401584
  N   5.38805887399542     -1.39276686658931     -1.23236089042860
  N   5.46252223890494      0.84285383934428     -0.33925498415835
  C   4.62571621534630      1.75961169151149      0.26579242549907
  N   4.97839536600096      2.93858102421475      0.51916883387465
  C   4.19654183254364      3.84399955135523      1.24601599094754
  C   3.30810654212909      4.72382892023877      0.78853332275752
  C   2.83677513059596      4.94855039082303     -0.60028474349924
  C   1.68452527697877      4.52405831360516     -1.12210716983948
  C   0.73698344165357      3.60956591489402     -0.42625879037152
  O   -0.45964389017979      3.69417868212281     -0.50549127689358
  C   1.40001411913547      2.52157428494166      0.39126482791333
  N   2.32731210775704      1.89706845154628     -0.17523860433526
  H   6.41621847738655      1.09789722721171     -0.55080855134624
  H   4.43073929120596      3.85141331183386      2.30683976971642
  H   2.87958084942305      5.39123829696019      1.52982959502635
  H   3.43923397758074      5.62393381488353     -1.20276872176852
  H   1.35481857346951      4.87734439724533     -2.09187463334890
  H   1.10433221204677      2.37111870928126      1.43235713872109
  H   6.37508382615010     -1.28684102185658     -1.46384117865712
