24
Coordinates from ORCA-job 18059optt
  Br  0.99928461565798     -0.01565868510134      0.12610989934248
  C   2.85941766682138      0.07578083613092      0.01265771659980
  C   3.56535148260352      1.22330084827298     -0.03847229798822
  O   3.12803834971767      2.48645903179074     -0.03027765204594
  C   4.30683116805141      3.30842011013504     -0.09985780705043
  N   4.24490469187585      4.55889244911196     -0.11089541986297
  N   5.43427655116947      2.50540591454549     -0.14938738305040
  C   5.00433595772759      1.27942844386489     -0.11523084145255
  C   5.64057303469046      0.01541593126342     -0.13912720345160
  C   4.89940898342363     -1.12106205968870     -0.09390520018967
  C   5.81303139317338     -2.30714760678978     -0.09220834962288
  C   7.14689768108499     -1.61673659520549     -0.46030204937419
  C   7.47859930759485     -1.74368229021563     -1.95121942011277
  C   7.68130903127031     -3.14042679755828     -2.32289771139167
  N   7.81346914095012     -4.25314266460040     -2.56115022896603
  O   6.98162500706294     -0.21833512597848     -0.18586697830232
  N   3.54642856879212     -1.11657655572121     -0.01810752354648
  H   3.28302241892270      4.88155494300739     -0.06411760230148
  H   5.54244739879147     -3.07501121600782     -0.81884201726582
  H   5.85084939403090     -2.77264026105088      0.89462862063333
  H   7.97982254539168     -1.97423557323109      0.14053919880985
  H   8.37646203802013     -1.16790957719984     -2.17407339872057
  H   6.65795792187081     -1.32929750472714     -2.54208754688078
  H   3.02565565130458     -1.97879599504676      0.00809119619131
