20
Coordinates from ORCA-job 18062optt
  Br  1.02970387977035      0.24267563307962      0.06417500153100
  C   2.87444887273372     -0.00784296154456      0.06232202617504
  C   3.49118413790230     -1.19404667168061      0.06217991533336
  O   2.96887433506975     -2.42221840858820      0.06269562821281
  C   4.08588839736526     -3.31473313485503      0.06153410410883
  N   3.95130237215015     -4.55754108252015      0.06115182016634
  N   5.26641025830177     -2.58491983607024      0.06098625577395
  C   4.93383243977511     -1.33199555670931      0.06125456240257
  C   5.71966886981956     -0.13171448070974      0.06066360410297
  C   5.01449259785747      1.05982707658272      0.05984960418218
  N   3.66908607663823      1.12792557457360      0.06087377637667
  O   5.57973922246465      2.25987665005989      0.05800473727794
  C   6.98113308296458      2.43254172230279      0.05617706186611
  O   7.38033717749571      3.55128622829499      0.05327435155045
  C   7.74908158001473      1.21027283673679      0.05834096018800
  C   7.15445250688688      0.00016461736061      0.06069486404590
  Br  8.24026073237003     -1.52519871973716      0.06465728166783
  H   2.97021360083261     -4.82262344011528      0.06167218889679
  H   3.24130333771704      2.04327446692805      0.06036962300859
  H   8.82158652187005      1.32498948661122      0.05812263313265
