22
Coordinates from ORCA-job 18064optt
  Br  0.94876738412948     -0.29064327729376     -0.21774017050637
  C   2.80930497462768     -0.16091446346425     -0.12559846132355
  C   3.58048450796285     -1.23892111830374      0.02461501470620
  O   3.14243356960622     -2.52899151535648      0.16836181685462
  C   4.23548852084688     -3.34867692636736      0.30821806418314
  N   4.24374713719751     -4.57955629630994      0.50867159477019
  N   5.36251112172546     -2.54278452439526      0.18035611497132
  C   5.02047833154636     -1.22972654314012      0.03423244936107
  C   5.79520378603066     -0.11751835093883     -0.08085538645930
  C   7.26399869522180     -0.15370976419826     -0.17258079833845
  N   8.00779535570595     -1.13001390511455     -0.52244826399789
  N   7.85786565341996      1.03973503644818      0.16043890752418
  C   7.22080417788737      2.28186202740132      0.29124244751956
  N   7.83047693079541      3.36610276439153      0.53232219062031
  N   5.83651998784348      2.29998196432952      0.13410041750339
  C   5.20447358397734      1.20215684737375     -0.02735324207585
  S   3.45790100956508      1.44186728651958     -0.22645313316678
  H   3.30585070762284     -4.96231305458690      0.57450146098042
  H   6.28014120440049     -2.89541228326113      0.40354855941436
  H   7.47338413084683     -1.92270333325843     -0.85613695131761
  H   8.86555822187809      1.03668962038926      0.08739278711417
  H   8.83181100716222      3.22048980913589      0.63816458166286
