17
Coordinates from ORCA-job 18063optt
  Br  0.93339139518090      0.31953574601687     -0.06335531166353
  C   2.80150827968129      0.19773590865481     -0.06280519937022
  C   3.58080626555055      1.28380763153591     -0.06258645274994
  O   3.16810769701212      2.56305781471819     -0.06265625953723
  C   4.34185267031181      3.36027071398613     -0.06238742513773
  N   4.31615499541322      4.60976431511559     -0.06239331696361
  N   5.46869497293369      2.54011334047906     -0.06218413914759
  C   5.03836592710095      1.32453110512500     -0.06228944832948
  C   5.75910021811313      0.09602163263733     -0.06216400770376
  C   5.10118055792642     -1.12612721353215     -0.06222258901509
  N   6.05913435373666     -2.06948684142554     -0.06213509755196
  N   7.30103825756672     -1.54511898437838     -0.06197453996828
  C   7.13517608403462     -0.24449464057105     -0.06181114429038
  S   3.40051219667081     -1.44296637379281     -0.06259048096322
  H   3.36131200127362      4.95879071008569     -0.06259239747296
  H   5.94735478665949     -3.06960912854938     -0.06219811342215
  H   7.98330934083396      0.42017426389473     -0.06165407671288
