19
Coordinates from ORCA-job 18075optt
  Br  8.72273014768549      0.24414152918682     -0.29443470413375
  C   6.88137349649949      0.00173232458178     -0.42923703187451
  C   6.08282367453998     -0.02868760591139      0.64683845607138
  O   6.42069442006621      0.08745438927647      1.93323864102986
  C   5.22506975742809     -0.06261761998484      2.67103860496624
  N   5.16333583191341     -0.02119336085788      3.91356634218664
  N   4.14434822503435     -0.25495358340247      1.78793949586213
  C   4.63731636941697     -0.23248761850390      0.61124761218341
  C   3.90237795630676     -0.30331654522627     -0.69747437938852
  O   2.70976725704702     -0.39939407615025     -0.75387850257139
  C   4.79834052128666     -0.20123256471916     -1.87724704725464
  C   6.26717915695419     -0.26976706311457     -1.72653869475946
  N   7.00572357750935     -0.37850910164714     -2.76368572498176
  N   6.43702560677963     -1.02194558008345     -3.84014990353709
  N   5.65033932235245     -0.32461918116386     -4.50922465753516
  N   4.70079274088771      0.60301153419969     -4.09948167658769
  N   4.26091691335911      0.42322123022291     -2.90544537057628
  H   6.07913112770882      0.13607263459864      4.32997097670803
  H   5.46471389722420     -0.64390974130112     -5.46004243580741
