22
Coordinates from ORCA-job 18073optt
  Br  1.03460702894642      0.02524703406060     -0.11454753995173
  C   2.89611946872169      0.01603113925627     -0.08878281117606
  C   3.63015547505775      1.14616287409568     -0.11008325056600
  O   3.17905289327297      2.42306879638214     -0.12692881741538
  C   4.26775758533081      3.28545489282948     -0.07692524126434
  N   4.22321603231863      4.53184597409879     -0.00920743329048
  N   5.40744970983798      2.50326433353513     -0.12362094313784
  C   5.05252461273756      1.16024285356820     -0.09888570810338
  C   5.74017418204045     -0.00056486022777     -0.07307486154212
  N   4.98609428996234     -1.15560263819727     -0.04019122922016
  C   3.59658274119601     -1.26755947616125     -0.05277184124257
  O   3.07174708303553     -2.35974227578308     -0.04107224479386
  C   7.18866709350870     -0.10852452272395     -0.06103257067640
  C   7.97822054229568     -1.05569305819263      0.50896105562657
  O   9.25969941689837     -0.78816086484803      0.27467585021650
  N   9.36001092220321      0.35889337594768     -0.46604482925250
  C   8.14329932472182      0.76320343228417     -0.66693020963590
  H   3.27006150284905      4.87833832793402      0.01841542574540
  H   6.29337135449684      2.89091152003693      0.15379943230505
  H   5.45677739731032     -2.04805546002718     -0.09095648940441
  H   7.76961054227617     -1.93210372857383      1.10090693933477
  H   7.96880080098166      1.64834233070592     -1.25970268255514
