21
Coordinates from ORCA-job 18076optt
  Br  1.07530677811510      0.26782070625375      0.06830920445780
  C   2.93234031973421      0.04754727840499      0.07356313137432
  C   3.73490600672387      1.12187374063584      0.07816455953782
  O   3.29884098688258      2.40490678264673      0.08003431635299
  C   4.38801634718026      3.26339346750976      0.08350290131694
  N   4.34479136380563      4.51145455559529      0.08569006558132
  N   5.51448032672907      2.47214317638932      0.08399430760397
  C   5.18056623738942      1.13684589877788      0.08093534396337
  C   5.95020217969575      0.03609881672264      0.07973771886409
  S   5.22423173471531     -1.55427699687925      0.07612420773308
  C   3.45302774275821     -1.31959952102311      0.07252108197522
  N   2.68140329661122     -2.32170659306657      0.06925823389527
  C   7.39628529508956      0.07312244251807      0.08096004782428
  C   8.33364438605821     -0.90731399388387      0.07983872955697
  O   9.53059960012217     -0.32951871579786      0.08138806991511
  N   9.33566617008918      1.03319905470249      0.08342732256770
  N   8.10712837724772      1.25987557582258      0.08331584797941
  H   3.39030300480857      4.85614062806353      0.08466681634582
  H   6.45470732416769      2.83604164121879      0.08569759211949
  H   3.17153864482830     -3.21353743486176      0.06889712147491
  H   8.29501387724792     -1.98251050974926      0.07797337956011
