22
Coordinates from ORCA-job 18085optt
  Br  1.22480566416074     -0.00913819661040      0.08537447423671
  C   3.08553948546273      0.08025932378088      0.00137716577264
  C   3.78009144189057      1.22700182010185     -0.04932073467908
  O   3.40552594073717      2.49937328858867     -0.06458063440746
  C   4.61484035638975      3.27388234659081     -0.11218837417358
  N   4.61813888558571      4.51994318376185     -0.13223376096962
  N   5.70605588613043      2.41777758574478     -0.12842062771697
  C   5.21984602272913      1.21522861153407     -0.09203680060758
  N   5.85124627236865      0.01323227684172     -0.08597202970668
  N   5.16609945407114     -1.15773603193815     -0.04891635125767
  C   3.88245232535019     -1.11894945924530     -0.00734417628193
  C   7.26442250328543     -0.12362895531033     -0.11673825045325
  N   7.85347012279813     -1.24118676519958     -0.12961030159134
  C   9.27486523354386     -0.91898920135543     -0.15605777844738
  C   9.37579996065691      0.60275449381439     -0.15106874439462
  O   10.33957424506232      1.31240226735070     -0.16388071552780
  N   8.04695345643917      1.01359464694700     -0.12789521606656
  H   3.67797286602798      4.90395995351572     -0.11143543598914
  H   3.38932236347969     -2.08226099446192      0.02335758577176
  H   9.75057212573187     -1.32706494635478     -1.04946482264341
  H   9.78662938592099     -1.33751557050071      0.71199969928389
  H   7.70077600217737      1.96606032240415     -0.12794417015093
