18
Coordinates from ORCA-job 18088optt
  Br  1.00671900468851      0.03539439242354      0.74623739777378
  C   2.78924486313524     -0.06240176928386      0.24070688685990
  C   3.43707664928347     -1.21136980498241      0.09364053897022
  O   3.02575313240376     -2.48412320611822      0.14124844240082
  C   4.19578838906636     -3.27295861900237     -0.05971641350925
  N   4.18217012368476     -4.51445642078701     -0.11995968310925
  N   5.32534766148616     -2.44065413572172     -0.15896460051344
  C   4.86983114032361     -1.26024366148126     -0.07277967485914
  O   5.60323625767081     -0.14447093021767     -0.04965739686039
  C   4.98154448366479      1.05181800176753      0.13658648506889
  N   5.77380044847729      2.03285681855436      0.22958347507046
  O   5.20188848607770      3.28026174007580      0.42836390512989
  C   3.93523172044709      3.54245598028421      0.03157226019788
  O   3.52329083851764      4.64908539511549     -0.00697332135566
  C   3.03862191275589      2.34232963880470     -0.28197161490729
  O   1.95804986015629      2.46298397623062     -0.75784854158452
  N   3.58463001091217      1.11370278371670      0.13391551595890
  H   3.24177501724842     -4.88721017937843     -0.01098366073180
