21
Coordinates from ORCA-job 18090optt
  Br  1.05250436816238     -0.45081242613990      0.42330207920483
  C   2.92423581865629     -0.37087513496737      0.27107791898927
  C   3.48408687549821      0.84080218765673      0.17908126286850
  O   2.85540929324163      2.02652774282136      0.17784520698104
  C   3.85903121790622      3.02126345220095      0.16371473928113
  N   3.62046422808401      4.24508128471772      0.16459640332594
  N   5.11993854286357      2.41584218183109      0.14525826917925
  C   4.90854340759992      1.15177646811641      0.14080140690378
  S   6.11890847728959     -0.06152286737949      0.14997771951626
  C   5.14387758243844     -1.52068731208918     -0.11912285499668
  C   5.83703559393347     -2.52617650600163     -0.67524490429581
  C   5.25737588537403     -3.85223723832246     -1.00372096504889
  O   5.31318505845289     -4.31991319271681     -2.10580188045784
  N   4.74794240744977     -4.55404162213310      0.09097655904915
  C   3.80422100228945     -4.06141248209539      0.79001625552970
  C   3.15291850881684     -2.77463490744981      0.64661531972919
  C   3.72335260618855     -1.60399180808146      0.26712595809911
  H   2.62002476669294      4.42966774678308      0.17319216161454
  H   6.86456252779336     -2.37413325169157     -0.98726238945610
  H   3.41823000357143     -4.68817106451201      1.59319727309856
  H   2.12415182769695     -2.74535125054717      0.98037446088505
