21
Coordinates from ORCA-job 18096optt
  Br  1.21847674091085     -0.22939659774166      0.06842686579937
  C   3.03647610516205      0.15118294055442      0.06698327378417
  C   3.56463770001803      1.37321593684400      0.06613489649081
  O   3.01328593232934      2.62055927167071      0.06601824215819
  C   4.04638215160637      3.52157862525511      0.06468945490428
  N   3.93522212112690      4.76921012491138      0.06405839600421
  N   5.25268530614984      2.80906441571013      0.06412794601983
  C   6.53222425403902      3.38499418195146      0.06268289629464
  C   7.78079864831553      2.82134160927354      0.06222324741915
  N   8.71526013800037      3.81962524708433      0.06059669946382
  C   8.05019270748995      4.94366954667199      0.06003740132935
  N   6.70865875337245      4.73955836937484      0.06132717498810
  C   4.98502877676634      1.46950539912089      0.06497003540489
  N   5.82402769258634      0.49348650692310      0.06474413767122
  C   5.28966530227970     -0.77422468792374      0.06570880213043
  O   5.88237706068368     -1.79727982439654      0.06576059217397
  O   3.85412904804633     -0.89752176506359      0.06677531899926
  H   2.96282441104784      5.06047737911715      0.06464693852557
  H   8.03703332508273      1.77761780546891      0.06293197441100
  H   8.47557913001276      5.93360516541999      0.05873497181835
  H   5.95103469497353      5.40873034977357      0.06142073420941
