22
Coordinates from ORCA-job 18100optt
  Br  1.04946349514147     -0.12700423266761      0.08210010110846
  C   2.91233397244136     -0.13148788305458      0.07621546654572
  C   3.61787118151396     -1.27697619561799      0.07436045669084
  O   2.95819184608665     -2.45930573393994      0.07541778399623
  C   3.58926454988480     -3.67471281383155      0.07438786368682
  N   2.95042339672870     -4.75597990408506      0.07448807227611
  N   4.95755202231112     -3.64941644631757      0.07346409306873
  C   5.76741353759770     -2.51953415383487      0.07187759175852
  C   7.10394864932551     -2.60501887079019      0.07060047081646
  S   8.17464251842175     -1.24742749980776      0.06846943783691
  C   7.13131650912648      0.17441363401330      0.06751995002239
  N   7.58398938966637      1.35735057335845      0.06514216116055
  C   5.67516029348216     -0.05013502266552      0.06996711844902
  O   4.98282506075614      1.09194522740469      0.07029237046170
  C   3.59872452278508      1.15663941444518      0.07338484026581
  N   3.01784813689159      2.26861968854563      0.07343634461797
  C   5.06296867999659     -1.25932095497413      0.07174391262229
  H   1.94870061515715     -4.59374087922883      0.07539711497441
  H   5.37962462215030     -4.56452579228498      0.07309743452136
  H   7.61367763122564     -3.55914001511279      0.07094205800192
  H   8.60185464202508      1.39203583521816      0.06367694467897
  H   3.69020472728436      3.03272202522799      0.07101841243879
