26
Coordinates from ORCA-job 18118optt
  Br  0.95746435453980     -0.04634996743444      0.23412095423514
  C   2.80499375283108     -0.16465584776122      0.05437517265340
  C   3.50013572528768     -1.29561419517534      0.10020871395746
  O   3.08680573394020     -2.59048155681955      0.27276747147035
  C   4.20896227379200     -3.38458347848770      0.25437160354114
  N   4.25268349704662     -4.63145409242440      0.37636040460509
  N   5.31738125100123     -2.56911616444688      0.07097618181345
  C   6.66663563681207     -3.10076379767129      0.04619309113320
  C   7.01803814627852     -3.72017003314444     -1.30086724460953
  C   7.00853523992654     -2.69860843456009     -2.44361205212552
  C   7.97338061214034     -1.62691656760103     -2.20108071640413
  N   8.72384129970880     -0.79913242969030     -1.94570994638459
  C   4.92859644041334     -1.25762329979776     -0.03673634060886
  C   5.58768511630392     -0.10024108261306     -0.22715556842354
  C   4.81096153069066      1.13073089148005     -0.28383813575232
  N   5.20204264741544      2.31487336519517     -0.45583842438412
  O   3.42320893012375      1.00893809407555     -0.12796755878208
  H   3.32938805958071     -5.02864128032816      0.51729765283614
  H   6.73568475360795     -3.85683976623335      0.82751496570959
  H   7.34560662977264     -2.28183217765398      0.29107208390124
  H   6.30045829705683     -4.51103247883231     -1.52149843045866
  H   8.00601167458794     -4.17633422660459     -1.22473719430323
  H   6.02100319010009     -2.24265884912523     -2.54860283796748
  H   7.24878700494160     -3.17744189335856     -3.39290719080289
  H   6.65891569250275     -0.03092442589825     -0.34726057834829
  H   6.21079250959740      2.34587369491118     -0.56644607650096
