23
Coordinates from ORCA-job 18110optt
  Br  0.98204072424318     -1.13188360762741     -0.55326765072142
  C   2.77918485904360     -0.68413480118059     -0.28154185017001
  C   3.17432632790131      0.59496118406288     -0.40015201728620
  O   2.37908638423201      1.60610598606590     -0.82879052291386
  C   2.09144775891237      2.67348739465005      0.00378729654099
  N   0.98924043185894      2.84429322639378      0.56994913654106
  N   3.09242151251063      3.62814394150617      0.05244010743312
  C   4.43942223171958      3.40766633481484     -0.08530482906955
  C   5.04900557171800      2.22614757817422     -0.21695969338523
  N   4.48691171287993      0.94649403695276     -0.21241943861267
  C   5.45339282781405     -0.02160060797477     -0.03677800742452
  N   6.66273464083345      0.64995176698015     -0.01243608609812
  C   6.51317718991359      2.02595970302077     -0.14368941363891
  O   7.39118434929568      2.84544919174323     -0.14859695980299
  C   5.14307088142840     -1.32439575877785      0.07030927383771
  C   3.74830224238167     -1.75954722067591      0.00741981120661
  N   3.33126369663176     -2.95915461997702      0.14824984371932
  H   0.34884788630096      2.08415201993820      0.35383052773157
  H   2.79570935777164      4.50403287366054      0.45466545272152
  H   5.07164450448261      4.28468378372312     -0.05103408816496
  H   7.55829047827258      0.20501560271370      0.09896683044020
  H   5.91883831526535     -2.06432367314584      0.20582715106896
  H   4.10745611458865     -3.59350433504091      0.32452512604738
