29
Coordinates from ORCA-job 18114optt
  Br  0.51052957746934     -1.36481871439524     -0.73629205019549
  C   2.00536025293429     -0.24963014095691     -0.52269344064444
  C   1.79575439775207      1.08876629082599     -0.20540223209127
  O   0.52856751912138      1.58545865786666     -0.12484691040526
  C   0.12503051325846      2.07619201640524      1.10694065774595
  N   0.39792672010385      1.57367272347965      2.23153625242596
  N   -0.64167752878767      3.18317555835013      0.94318334473876
  C   -0.61277740407860      4.04351768366408     -0.22796746516985
  C   0.63569579487634      4.91387814559668     -0.39367230130948
  C   1.90214378246592      4.17614421555134     -0.83631025913163
  C   2.65749739405121      3.40689096650266      0.28018747339015
  C   2.87513905381319      1.95218005167919     -0.02682110647144
  C   4.14174188158322      1.39878468300592     -0.17190182376856
  N   4.36172861304661      0.13042464002251     -0.47886741080843
  C   3.32588656051019     -0.68754992436489     -0.65667874063665
  C   3.76020760310879     -2.08149740309828     -0.99786748067252
  O   3.04774350800358     -3.02446279046963     -1.18751363241552
  H   0.89638519829808      0.69281236235772      2.15372138992939
  H   -0.96206868457337      3.57142241585942      1.81572917015024
  H   -1.48984488723572      4.68670521588437     -0.15608587084136
  H   -0.74572047393967      3.42331707092400     -1.11479274532611
  H   0.39590413439503      5.66320601148923     -1.15282949425983
  H   0.82478294647352      5.46197615365158      0.53457025320536
  H   1.64133091533094      3.49072068796646     -1.64626475569473
  H   2.58948854138719      4.90434152101959     -1.26796405537040
  H   2.11947357231595      3.49192879426923      1.22781720013104
  H   3.63295252545312      3.86378924592105      0.44694837761121
  H   5.01804725160019      2.02518191946840     -0.04101820452535
  H   4.86077072126255     -2.14952805847616     -1.05584413958972
