23
Coordinates from ORCA-job 18115optt
  Br  1.47753502746598      0.13030202559683      1.25183337346270
  C   3.16252472811953     -0.00222173685967      0.45841301681055
  C   3.73660381272066     -1.19330413220151      0.21081964552439
  O   3.09935825555620     -2.34958912817596      0.52689797082124
  C   3.60639349011192     -3.59876527193583      0.29400988928868
  N   2.98016354752649     -4.64072796470939      0.61693276504519
  N   4.84163074336895     -3.66079134244692     -0.31717252230302
  C   5.35695491503517     -5.01751201458909     -0.54224371116499
  C   6.61049137276482     -5.03209965861056     -1.28258670065449
  C   7.63594974191398     -5.06602785159081     -1.89730011286006
  C   5.54332812119703     -2.52182888148161     -0.63277638134260
  C   5.03045130872207     -1.31121673397861     -0.38766436293138
  O   5.74954798186366     -0.19607233813124     -0.71750670939081
  C   5.26538053270919      1.05216715401852     -0.51750703284333
  O   5.93278604690103      1.98898184018894     -0.82216210394569
  C   3.87719699192297      1.21079561411067      0.09479181856804
  N   3.40301141799943      2.37054468747427      0.26367192944831
  H   2.08949840780929     -4.41456655443216      1.04817820997783
  H   4.59328708185339     -5.58094620045173     -1.08023579364864
  H   5.48073058765877     -5.50835703098845      0.42555044794609
  H   8.54738234175702     -5.10307500245300     -2.44646275632654
  H   6.51277085648849     -2.65266665524901     -1.09011053877490
  H   4.07902268853357      3.06497717689643     -0.06037034070654
