28
Coordinates from ORCA-job 18123optt
  Br  1.01372813414748      0.11866439175699     -2.56048391301650
  C   2.28109902470208      0.43776989212230     -1.21507912715149
  C   3.15490470573516      1.44913082282220     -1.31073345775195
  O   3.10833846320888      2.42763221518115     -2.24642998046823
  C   1.95418783074401      3.22059771156714     -2.35023763661745
  N   1.70527825727767      3.81965486981343     -3.42515355637447
  N   1.10770043471675      3.26415089057256     -1.26116757741173
  C   1.51492925439261      3.57958843822079      0.11079202222274
  C   0.47694909428909      3.12151903545486      1.14605166874539
  C   -0.03342395105770      1.67296092717674      1.03420915055859
  O   0.29333164049994      0.77211139396905      2.09062309762608
  C   1.63621949839204      0.52973573388430      2.44019102007924
  C   2.55357607417023      0.50462652494651      1.23800765178232
  N   3.58659108029813      1.24754462943547      1.27901325657948
  S   4.42488021967764      1.66820323654068     -0.11169399381192
  C   2.14589572547642     -0.30481778312530      0.04331446714194
  N   1.62144409547519     -1.45482277400704      0.10547734401557
  H   2.34506065346152      3.53667569445129     -4.16168709887238
  H   0.27032472444372      3.75342544482224     -1.54930796984282
  H   1.65952755264534      4.65894615543529      0.22396542342505
  H   2.47850841759440      3.12888701126442      0.30824172894571
  H   -0.38674097946460      3.78639889099625      1.06955736793570
  H   0.89211701287552      3.29410124926890      2.14204361832020
  H   -1.12117950775242      1.67497658855182      1.05602604319892
  H   0.25220392588029      1.25455137931950      0.06755986473738
  H   2.02645336292239      1.29355076285072      3.11769707755926
  H   1.63524935004457     -0.42514427563549      2.97106241681728
  H   1.49584590520363     -1.76061905765682      1.07014109162808
