30
Coordinates from ORCA-job 18128optt
  Br  1.82233376166542     -1.10824136290959     -1.76991153402832
  C   2.64775928554076      0.08860658503588     -0.60249610381574
  C   2.26645726273704      1.38099599091774     -0.52526742152508
  O   1.24891120818825      1.86908949141087     -1.28263512900491
  C   -0.04514445413133      1.73753017294796     -0.76004453729729
  N   -0.43987369406090      0.90503673489141      0.08841994807255
  N   -0.85736642815423      2.67850465197306     -1.35154011418238
  C   -1.71166373092266      3.42403918051487     -0.43656416421764
  C   -0.92219675000527      4.51104216969459      0.31035444038838
  N   0.37386214134630      4.01646451631182      0.76839349284437
  C   1.50675808951954      4.47244854971236     -0.01609152543887
  C   2.81687401662940      3.80809619913627      0.38280122802379
  C   2.95472620810277      2.29695656436667      0.37228007004627
  N   3.86031773682462      1.84455210366366      1.17111597688749
  N   4.17725549314002      0.54881075127875      1.13059536038525
  C   3.73015638501652     -0.41861046651533      0.24106379549868
  N   4.16401497408340     -1.61208541610354      0.16307185535739
  H   0.29295340462557      0.30046314848032      0.44057627330250
  H   -0.35693783197195      3.25279841061630     -2.01368252575488
  H   -2.12314913474761      2.70109039137681      0.26412297012769
  H   -2.53691985511914      3.87086525286822     -0.99218281212573
  H   -0.78346161633642      5.37778944692688     -0.34918617275389
  H   -1.51663739315043      4.85585124227356      1.15856099127971
  H   0.51958713175396      4.20172637821892      1.75079033471247
  H   1.65787375922259      5.56006843994092      0.06241846354097
  H   1.30053906923457      4.26937118706196     -1.06541450918907
  H   3.09858017680789      4.11979148794162      1.39049811662616
  H   3.59199769763334      4.20608495465592     -0.27950166160692
  H   4.90144339782848      0.28980965264971      1.78242804334206
  H   4.91594968869948     -1.79494640933862      0.82402685050496
