22
Coordinates from ORCA-job 18120optt
  Br  0.61422883245686     -0.03933770456009      0.98871806874775
  C   2.29955994889872      0.34517033916042      0.29312492035422
  C   3.31539058481542      0.92748706315950      1.01395730901657
  O   3.06431311781719      1.77605206790015      2.03114890525101
  C   2.18916493442892      2.83742861182893      1.68254643897490
  N   1.79364888359901      3.65455497524382      2.53938890707431
  N   1.90191904379318      2.81000137463891      0.32293972219206
  C   0.67373743717473      2.89943015641581     -0.03333856186634
  C   0.17532558659552      2.44488500532858     -1.30648247266243
  C   0.65367452003639      1.44769356516221     -2.10658535708061
  N   1.80459004316840      0.71672489645005     -2.10130391717838
  C   2.55113053653815      0.36672226638464     -1.12515789800654
  N   3.88263910830859      0.06276709963134     -1.41775441964738
  C   4.84699503069686      0.28312065946564     -0.49775984819910
  N   4.61254155206669      0.78567155125336      0.66965070769615
  C   6.19560603596835     -0.04309737863169     -0.89473118124303
  N   7.24800735466183     -0.31154647552191     -1.25705777080416
  H   2.16346659867664      3.44189750088499      3.46304587501591
  H   -0.07729104198174      3.23184597413365      0.69040474378980
  H   -0.79204090977882      2.83426274473286     -1.59795908960717
  H   0.04229113701746      1.22761982123639     -2.97668700639509
  H   4.11710166504162     -0.05135411429757     -2.39710807542242
