25
Coordinates from ORCA-job 18129optt
  Br  0.69048059524214      0.53558678347001      1.83505597555617
  C   1.71894648627193      1.01645664941463      0.35024761192187
  C   2.79794402469353      1.80709677197254      0.41310281536322
  O   3.17056520699710      2.57880433467186      1.44931285360242
  C   2.19513293533183      3.28673664833270      2.14490344715054
  N   2.29670257629833      3.50399678931966      3.37630365985664
  N   1.11799690338922      3.70665350790559      1.39903597592115
  C   1.18878128089276      4.31771646501610      0.08209245898109
  C   0.52979764046362      3.54423355959898     -1.08945222530637
  N   -0.65245874664670      2.75657704966016     -0.75620115851347
  C   -0.88357014055308      1.43280326699199     -0.99289101364332
  N   -0.07937043464615      0.45876036420436     -1.18536373512658
  C   1.27622952155999      0.66121764890394     -0.99732460940471
  N   2.05901747957179      0.65052338642858     -2.01269587222599
  O   3.38399382131580      1.00423142476872     -1.77009042390778
  C   3.74318668622490      1.79399035998161     -0.72772467492868
  O   4.79983477045717      2.34879715254022     -0.72389569379616
  H   3.07688220648450      2.99139120703510      3.77654159816910
  H   0.42181020601356      4.09588658789067      2.01513610877937
  H   2.23071270105549      4.50458462284420     -0.18815675512187
  H   0.71583040021465      5.29833925990256      0.15789478180614
  H   1.24356793972382      2.89919542444531     -1.58655325421029
  H   0.24295752913321      4.28866512376478     -1.83617774782218
  H   -1.49485813295364      3.28992449311029     -0.61205988976049
  H   -1.94511345653580      1.19383111782542     -0.99604023333981
