22
Coordinates from ORCA-job 18131optt
  Br  0.83815947070755      1.08245909460100      2.12539574169958
  C   1.97712616086570      0.81331088341772      0.68042828937287
  C   3.17394958445431      1.43907156871373      0.54370122508521
  O   3.41675301922585      2.61844366553787      1.15360257516242
  C   2.82629917041699      3.67452583119804      0.39714007724520
  N   3.27063058169994      4.06027812464213     -0.70255382294258
  N   1.83544706636718      4.33489257438618      1.10805260595885
  C   0.61631715699571      4.42016541645120      0.79843199913877
  C   -0.16914852995189      3.69154002003941     -0.27472040652007
  N   -1.21787054067458      4.17989891729887     -0.79343346396765
  N   0.37781322670622      2.47029530528966     -0.59106944518773
  C   -0.29310848002297      1.41175465994254     -0.85113170455727
  N   0.37405801335629      0.22914378881133     -1.06796253273096
  C   1.55498413177545      0.18226081649484     -0.54027166603970
  N   2.61895392166149     -0.38241496338378     -1.20238247786733
  N   3.89380971177917     -0.02126898721110     -1.05276701597649
  N   4.14848750808906      0.93893721415424     -0.27565619131601
  H   4.09851754184156      3.53875769684636     -0.98356089146177
  H   0.00902244858669      5.09907715006703      1.39993949224129
  H   -1.43557726836561      5.09599704124966     -0.40284526868318
  H   -1.37865503740115      1.39421527463036     -0.94523765859554
  H   2.44103114188701     -0.95934109317730     -2.01509946005791
