21
Coordinates from ORCA-job 18132optt
  Br  1.37625725503111     -1.89423188529740      0.85872498264712
  C   3.04231422629398     -1.15275800581753      0.43128675647486
  C   3.24704072570066      0.20329157794265      0.38644551735263
  O   2.22796742671497      1.03283651607860      0.71311214780899
  C   2.08318818074193      2.18255556844994     -0.10058649245650
  N   1.19650156387361      2.24415260609033     -0.97891667551540
  N   2.88780287940121      3.26270851330782      0.22217157177457
  C   4.16721840175029      3.18469485973465      0.22937878867422
  C   4.81342024873618      4.51539593435449      0.54712821108601
  O   5.99411460493119      4.69875224400850      0.61129187647515
  C   4.97565084333802      2.01435852300467     -0.02329322427356
  C   4.50795017241542      0.71510567404020      0.04215819522313
  C   5.64304597988904     -0.17891113115145     -0.23873516267008
  C   6.78648935663222      0.65172218861941     -0.48523267087836
  C   6.39029668231070      1.94592617809995     -0.34313988953749
  N   5.60991378145458     -1.47868079016229     -0.22229775243418
  S   4.27373010725524     -2.29684744143358      0.13070578260193
  H   0.69969552815081      1.35860068204224     -1.05578113517060
  H   4.07017000535074      5.31318657805145      0.71328145573750
  H   7.77051316095714      0.28332288865838     -0.72277713585768
  H   7.01971886907091      2.81481872137894     -0.44392514706226
