22
Coordinates from ORCA-job 18145optt
  Br  1.14828153215613     -1.38684990547003     -1.36782347243215
  C   2.51199202885263     -0.34682236012893     -0.63952756960724
  C   3.04858760851441      0.72193339789120     -1.24296338202957
  O   2.41853626522315      1.32281036966430     -2.29821525245139
  C   1.90569215989636      2.59361447806416     -2.05826615612906
  N   1.67211031613546      3.39505959302338     -2.98599651102938
  N   1.70967773909070      2.97505276680360     -0.71672226348872
  C   1.41167990621892      2.16517861248546      0.35209517399264
  N   1.80585691671167      2.43672984663416      1.52422061453262
  C   1.70671680564724      1.51597995165455      2.56871721346495
  O   0.88570509571434      1.51353877975896      3.43661900477403
  N   2.78860747869424      0.57710433348225      2.59380001065698
  C   3.41548710403493      0.33067366352505      1.37918963202138
  O   2.79397047619591     -0.65818862776583      0.63748503234122
  C   4.29862615061204      1.15646945080233      0.81561682612633
  C   4.21692754457494      1.39524819926038     -0.63100384981912
  O   4.86126174196879      2.22478101995281     -1.22916019896624
  H   2.00328839638633      3.03015863393081     -3.87546289919411
  H   2.05993286004079      3.89905803788244     -0.49979246850917
  H   0.82616416073578      1.28029478295810      0.09778926761619
  H   2.60216397011708     -0.19339080614853      3.22316941866973
  H   4.79073374247813      1.90356578173938      1.42123182946007
