23
Coordinates from ORCA-job 18149optt
  Br  1.32976509569412     -0.07228524126314      0.43947207530431
  C   3.17487443626016     -0.28394898516110      0.28688107352387
  C   3.76428858158803     -1.42295259288345     -0.06237651776833
  O   3.00103695253970     -2.52788627743893     -0.37513210059656
  C   3.53471482898461     -3.77305778431685     -0.39595611486666
  N   2.86463710997738     -4.81941510175324     -0.55365109193645
  N   4.91274593306118     -3.84111924338251     -0.23720782278488
  C   5.72753594235223     -2.74750137588332     -0.21574146648163
  O   7.04005942169314     -3.07340525841266     -0.23754046612399
  C   7.83741227576139     -2.61795551402877      0.80977124436143
  N   9.06516546882341     -2.79822669759854      0.84832155780975
  C   5.21049379272181     -1.50151357104210     -0.17003943243075
  C   5.94643838864097     -0.23873104917424     -0.23844237980611
  N   7.13276038808199     -0.02903088505785     -0.63513281050385
  C   5.18396296449360      0.99577379126744      0.21162852073540
  N   5.67307206420096      2.13954925847518      0.31457232828393
  O   3.86537296597449      0.84830871068853      0.56833402120327
  H   1.87281270262697     -4.61503443484483     -0.63103618389159
  H   5.31673622214241     -4.76509258714554     -0.26391653237440
  H   7.27755221743036     -2.10128901016950      1.58586963585277
  H   9.41776146799986     -3.29389176843708      0.02925804053817
  H   7.60027138787454     -0.86979783810549     -0.96410777261226
  H   6.65352939107655      2.09850345566805      0.03417219456454
