24
Coordinates from ORCA-job 18152optt
  Br  3.68025396701315     -3.50494918651914      3.58709274849710
  C   4.24473064348509     -1.48310320821389      1.69417213959745
  C   4.72433453796158     -2.19229608561238      2.72854577368553
  O   5.85191143343110     -1.80049557440792      3.35623812446249
  C   6.93308517472536     -2.59098792741969      3.64038003029713
  N   6.87205249023165     -3.82812910615499      3.78297795904409
  N   8.06523317073745     -1.73811153543049      3.73110594737663
  C   8.01757793663012     -0.72548055395312      2.74908058270433
  O   8.11251879398123      0.44642830881779      2.96758785819969
  N   7.82244578946913     -1.31167116724890      1.50628213640363
  C   7.31554758140529     -0.61833899575260      0.40689706867903
  N   7.93201115672341     -0.73340781871171     -0.69402811852697
  C   6.03211574584894      0.09854625415887      0.53684253479292
  C   4.83964373297940     -0.31828410647709      0.98657770981971
  O   3.76223875141612      0.43421890764567      0.53025619559325
  C   2.64331517436631     -0.33549614990421      0.63481499175129
  C   2.85220649910892     -1.49713555789244      1.24807332727038
  H   8.42031445582379     -2.09448851569449      1.27858795931654
  H   8.25073526647164     -1.37460346609400      4.65844681111240
  H   7.79824622720569     -4.20741055986969      3.95897891703178
  H   7.42278541161780     -0.27901242265510     -1.44853284276937
  H   5.98078397828106      1.00318223042122     -0.05770273631404
  H   1.74638981232616      0.10067014383906      0.22681398394180
  H   2.11852226875948     -2.24764390687074      1.48051089803316
