23
Coordinates from ORCA-job 18156optt
  Br  1.35041245803224      0.40070898218506      0.01170547433396
  C   3.20144787656498      0.13034057599649      0.19194159862335
  C   3.71923569086577     -1.10065277782214      0.06615519039419
  O   2.93694407684796     -2.20077438232291     -0.19955404799087
  C   3.50094723182821     -3.42964484756079     -0.30171942249980
  N   2.85567552712620     -4.47998638883430     -0.52917058916949
  N   4.87793366985266     -3.48197807331635     -0.14102643772997
  N   5.68862183570376     -2.45411920928534      0.10915956691530
  C   5.13767966816756     -1.29692751267070      0.21013496026400
  C   5.98303743636481     -0.11881956184711      0.48849468585901
  N   7.24110337152361     -0.09765230889328      0.62406234989630
  C   5.21985518070558      1.16553030448094      0.60152854948022
  N   5.96935920475989      2.25006036669541      0.88842777437516
  C   5.39989350860354      3.57088219951217      0.89308151042728
  C   5.24888185877810      4.13380038235380     -0.46190961641167
  N   5.15859083956299      4.57847757672467     -1.51313894891129
  N   3.94530020632827      1.25945385073264      0.45082842779434
  H   1.86226849545592     -4.29120099826293     -0.62372242769052
  H   5.30341237449380     -4.39150526801871     -0.21369661667160
  H   7.63601098891035     -1.03363678851457      0.51504164088490
  H   6.97014427044293      2.11530578461242      0.86807206677871
  H   6.03431185636533      4.23613697849857      1.47621928655095
  H   4.41393237271546      3.53120111555695      1.35608502449752
