23
Coordinates from ORCA-job 18167optt
  Br  1.05809007159728      0.02353683054092      0.06199065079415
  C   2.91825962843577     -0.05697047145549      0.06013854954302
  C   3.63975616002359     -1.18126377594521      0.05825202003559
  O   3.27174016706252     -2.49868352670819      0.05696354395421
  C   4.42481599067064     -3.24825387741935      0.05598473180882
  N   4.53123276742805     -4.48370287298398      0.05512174502740
  O   5.51334262666899     -2.41466791836454      0.05615706025316
  C   5.05384245365918     -1.12933559230496      0.05773233822730
  C   5.75815944091091      0.01698913000978      0.05904070656255
  N   7.12945622606194      0.09422790544475      0.05905975755468
  C   7.86706695086633      1.27045640662088      0.06019886735558
  N   9.13175452083276      1.32635979122351      0.06043076151072
  C   7.06720608667760      2.55809255096542      0.06118894020136
  N   7.64895618263601      3.68858883839724      0.06185501683938
  C   5.62748198866802      2.45155157925550      0.06154506446454
  C   4.99753154356687      1.25271754337870      0.06058426286537
  N   3.61478224452897      1.13139060830863      0.06102550677274
  H   3.62445513548887     -4.93937718870650      0.05518495981172
  H   7.64112939738100     -0.77620622073141      0.05817680771283
  H   9.57725577509721      0.41133432540519      0.05976856443947
  H   8.66034951499999      3.54530204881822      0.06157327858173
  H   5.06911374201026      3.37850209498359      0.06255558290149
  H   3.07922138472720      1.98541179126733      0.06247128278219
