20
Coordinates from ORCA-job 18161optt
  Br  3.06326319112341      0.75115253663050     -2.56025510754239
  C   4.75275520311760      0.30273794820119     -1.95498712595174
  C   5.87399922592639      0.17021899553987     -2.67520535708729
  O   6.98625193618279     -0.25001596463687     -1.93433024546472
  C   7.03065878227778      0.38136347502484     -0.73425780802555
  N   6.01120638634172      0.62104172619641     -0.02870455356224
  O   4.81409448521621      0.15004507799621     -0.61302354062291
  C   8.36714832551406      0.85427590190425     -0.17358950547851
  O   8.60549853099890      0.80876513436020      0.98329714773222
  O   9.25517942046299      1.36658052503326     -1.05673763799069
  C   9.00597368032788      1.30269157126023     -2.41123806190897
  C   8.30956839884750      2.22304631198851     -3.05356030161508
  O   7.97836188508029      2.02619398373653     -4.37766177311790
  C   7.46608671095156      0.77172663463170     -4.66079645802163
  N   7.98045608346898     -0.04612497584991     -5.44690325479034
  C   6.06132727359106      0.52422370877651     -4.09644111761127
  O   5.12860137473169      0.66559710320102     -4.83956938215686
  H   9.38646894138633      0.41520876732570     -2.90003794319203
  H   7.95208300490570      3.14697896064160     -2.61823924268946
  H   8.86601715954706      0.29829257803823     -5.82075873090263
