21
Coordinates from ORCA-job 18176optt
  Br  0.99354685857521     -0.14431012311061      0.31201151746584
  C   2.85990472186527     -0.10282767765285      0.20173818636497
  C   3.58797337834428     -1.21858331649136      0.41603535989538
  O   3.03409334254115     -2.41381057836990      0.77070974669300
  C   2.93117312882372     -3.36666943506031     -0.22075839768861
  N   1.94977028028979     -3.60022896156041     -0.93693088019797
  O   4.04789632945635     -4.15217606619033     -0.31011978480357
  C   5.18966541264383     -3.69033105609133      0.20002593600957
  C   5.64537486046982     -2.44718885717787      0.49931844332315
  C   6.94686818372214     -2.70443207120842      1.00102495561480
  N   7.22469863317488     -3.97358325875632      0.97709135769668
  O   6.10118998529709     -4.60313291222359      0.48204276843334
  N   4.96001358705976     -1.23212092846736      0.34007981929517
  C   5.62073801934295     -0.06348220683014      0.04163556981544
  C   4.96642299938105      1.09048545044563     -0.16444825666500
  C   3.50850203640889      1.17929569650416     -0.11489222057399
  O   2.88814243499217      2.20092367506276     -0.32172387587170
  H   1.18755822305178     -2.95815809046008     -0.72929307442029
  H   7.68178611156442     -2.00840442088335      1.37486559066766
  H   6.69531174484298     -0.15290969309984     -0.02747205716247
  H   5.51436972815241      1.99164483162154     -0.39794070389141
