20
Coordinates from ORCA-job 18179optt
  Br  4.24911454889716     -0.55709283230077      1.46318096687657
  C   3.23729995829404      0.10790463530576      0.05213360695035
  C   2.24483758890920      0.99828746284398      0.23421737904504
  O   1.91128643778633      1.55087968163015      1.42169004596866
  C   0.68739260082610      1.18902658400587      1.95030550507175
  N   0.57871763564403      0.20049345839699      2.69162252561358
  O   -0.30209944292008      2.05850836319228      1.64004547938645
  C   -0.25528544760570      2.71236838503536      0.44751559332520
  N   -1.08334905918042      3.70586836844530      0.24156620277552
  N   -0.84278439834819      4.07857018348696     -1.01830473825454
  C   0.12460365375464      3.36772346230147     -1.62044754240720
  C   0.53975382897173      2.44832111596857     -0.68591055021583
  N   1.53032123175036      1.46116854786643     -0.83950446393658
  N   1.79913241527296      1.08034025591166     -2.10730417881264
  N   2.71254274553300      0.26726665998583     -2.34071302828075
  C   3.51947257513795     -0.32995161031205     -1.30903666839514
  O   4.35520233329773     -1.13276301548211     -1.61673415047097
  H   -0.38165066814408      0.07855634764612      3.00511389276076
  H   -1.37951241613263      4.83269817369849     -1.41157688704889
  H   0.44200387825582      3.53382577237369     -2.63485898995135
