22
Coordinates from ORCA-job 18170optt
  Br  0.88548587655942      0.10534672530293     -0.15253626029255
  C   2.74331109863439      0.10301150373863     -0.02982214927669
  C   3.49780175188942      1.22875762508663      0.04801114431264
  O   3.08283440805689      2.52224330234640      0.06270733806170
  C   4.19839932379211      3.32967351105000      0.13445961308522
  N   4.24182629066626      4.56789856747609      0.15997479874451
  O   5.31602195709064      2.54378949538175      0.17475695116815
  C   4.89880219815068      1.23881307116216      0.12038781976972
  C   5.63422168206176      0.09352646722639      0.11853437472079
  N   6.98224312555682     -0.10396215940520      0.16750233412512
  C   7.94961986916471      0.89425011703495      0.24296489726943
  N   9.19623254897571      0.71725529599109      0.27287894528629
  N   4.86281239418316     -1.04084420492078      0.05200950689954
  N   5.37802796295150     -2.28802491740294      0.04316971441338
  C   4.28873659599325     -3.03377960861841     -0.03361075430769
  N   3.11883978697977     -2.37381132935950     -0.07599639690998
  C   3.48655134287531     -1.10282870520445     -0.02156133491502
  H   3.31560253131242      4.98044854552179      0.12212002690176
  H   7.26602525928527     -1.07702137836103      0.14352305881087
  H   7.54154460306825      1.90046828734824      0.27819460655729
  H   9.45716394623193     -0.26867841479776      0.23286569264659
  H   4.35789544652032     -4.10953179659698     -0.05853392707105
