22
Coordinates from ORCA-job 18174optt
  Br  1.11522805702852     -0.00196913848918      0.29097776514964
  C   2.95966688004919      0.04798370996177      0.04366176733492
  C   3.67831123770732      1.16609359165247      0.09962685333392
  O   3.13134197610042      2.37110549521291      0.38878123053098
  C   3.76822869481326      3.53365931164464      0.04765889538314
  N   3.21212623199044      4.64494309506316      0.04051726900918
  O   5.07645842363923      3.43569866542722     -0.26746832326536
  C   5.78641876701944      2.28463543766552     -0.09697948716966
  C   7.13000161379736      2.33173647769433     -0.02047576562758
  C   7.93631702881002      1.13517321685866      0.13304207643833
  N   9.20212189589201      1.07550022606652      0.24115411338774
  C   7.18729370570899     -0.19046014358987      0.15790602606171
  O   7.74936646720512     -1.25257570846704      0.24454778100714
  C   5.71798262085779     -0.12124104728885      0.03743801092689
  C   4.96606295270187     -1.23190778956052     -0.01846914379624
  N   3.60991060046684     -1.18628999859972     -0.16088044190000
  N   5.06129218930205      1.14289396494345     -0.07537335122932
  H   2.22622583579992      4.56345944869967      0.26931755179215
  H   7.60397959738776      3.30047091836101     -0.08714999481775
  H   9.61186539106767      2.00948347099638      0.20982396815556
  H   5.44617972699787     -2.19840683849500      0.04053006025131
  H   3.06462010565676     -2.02298636575757     -0.04018686095671
