21
Coordinates from ORCA-job 18189optt
  Br  1.24981416876784      0.03257594151898     -1.08673220737058
  C   3.04884869770870     -0.03023360781885     -0.58753022095053
  C   3.84623409685660      1.09956766151351     -0.49963799767867
  O   3.31130640632657      2.32260888046672     -0.80529394582785
  C   3.75241531584311      3.44252268028302     -0.14280669714263
  N   3.08652779879911      4.48981820992994     -0.04586436058824
  O   4.97691261607872      3.34837086167807      0.41219045179238
  C   5.85089098594563      2.38606848698700     -0.17037108625223
  C   7.11847685330321      2.41941163333371      0.56378536840895
  N   8.13014010552749      2.39117492709970      1.09666831167488
  C   5.19595393651018      1.03133450466107     -0.14147621895262
  C   5.81050182004004     -0.16056997524647      0.18533868066072
  C   5.02381129072641     -1.30324474129724      0.10710986010179
  C   3.68823621328334     -1.21788341275307     -0.27705965852393
  O   3.17180785986768     -2.46736305899500     -0.26776726179729
  C   4.21728134405260     -3.24907999995689      0.12209106257116
  N   5.31677064464075     -2.64226573126459      0.35565950356128
  H   2.15747880545928      4.36537032075925     -0.43731503889066
  H   6.06037687161100      2.68079853010689     -1.20560091001391
  H   6.85022563240100     -0.20091681392404      0.48280647028239
  H   4.01298853625066     -4.30506529708171      0.19580589493559
