23
Coordinates from ORCA-job 18186optt
  Br  2.88375921949901     -1.78424214554571     -1.62755745268963
  C   3.22454302748055     -0.23700551941282     -0.63884555076585
  C   3.29592808090468      0.98284478646765     -1.18027487872012
  O   2.82182274208694      1.32237500369769     -2.42671162331492
  C   1.75225661510003      2.18148232054100     -2.34138529861903
  N   1.37596032566608      2.97058128154380     -3.22427354827850
  O   1.12196222384406      2.03299255613463     -1.14223706491176
  C   0.71009253109774      3.14710199716358     -0.46202691765794
  C   0.49537452940498      3.16745321400802      0.85268070465677
  C   0.56253714256550      2.10751722269761      1.89442605939335
  N   -0.09987508014335      2.18716773050242      2.97686528253806
  C   1.33927241345724      0.85559574761865      1.68458328867114
  C   2.58519304369331      0.80471935807897      1.24704336853023
  N   3.27406148551135     -0.33579677992154      0.75351327245331
  O   3.30902156154005      1.94832873614912      1.00288565910438
  C   3.62030682672453      2.14136423637670     -0.31146024442947
  O   4.03899177795284      3.18549935114427     -0.69789849491161
  H   2.00651769051004      2.96471185030374     -4.02058234032353
  H   0.57779914258571      4.02140805456418     -1.08645353096626
  H   0.14460900926072      4.12353731512961      1.22382959999255
  H   -0.63202517024274      3.05703710267919      3.02154190035867
  H   0.82174094280067     -0.06955361463483      1.90170854078374
  H   3.02014991870005     -1.23411980528596      1.13662926910642
