23
Coordinates from ORCA-job 18184optt
  Br  0.94158601591233     -0.25319858380883     -0.24123759364750
  C   2.79607368217259     -0.11209061977809     -0.05086529101780
  C   3.56405649143966     -1.23883760670847      0.18622883876663
  O   2.96007719107582     -2.44947125700765      0.37170577303988
  C   3.15380611988112     -3.47011808814577     -0.55161100487209
  N   2.26835617482641     -3.85416954766162     -1.33879963496134
  O   4.31730180118984     -4.12787833712239     -0.42304059068284
  C   5.54765301917114     -3.40634872690066     -0.56601610540861
  C   5.76632668598649     -2.35061539849006      0.52455732243492
  C   4.94703967073191     -1.11284780834979      0.31051871995329
  N   5.56450410440016      0.05863185744399      0.22013194757289
  C   4.83596878266396      1.14307608993720      0.00304402070607
  C   3.45071058865486      1.11744506315149     -0.14693666260683
  C   2.73858647119222      2.33179927903832     -0.40245280263284
  N   2.18532239181253      3.31412451101172     -0.61192704591388
  C   5.64840916880838     -2.82919199993251     -1.90930506909408
  C   5.69466797351184     -2.33034395076855     -2.99528780317986
  H   1.42685724779362     -3.29382537616355     -1.22227706223404
  H   6.30234993747351     -4.18235348970357     -0.44574103220382
  H   6.81589727623794     -2.06175296075774      0.52841247029086
  H   5.51997064137015     -2.80892622692390      1.48568787280220
  H   5.36071983541291      2.08887851817684     -0.06106553363124
  H   5.74175872828055     -1.89998534053638     -3.96772373347997
