27
Coordinates from ORCA-job 18185optt
  Br  1.58169615728855     -1.91736255494811      1.34677741981740
  C   2.64411537243259     -0.59069121896975      0.56112155516904
  C   2.29480636866206      0.74248711631042      0.67926918259656
  O   1.20305560719656      1.10125531828850      1.42505545256296
  C   0.17843397389977      1.66894197978438      0.69604681675433
  N   -0.42766708271123      1.12963304616201     -0.25846364964850
  O   -0.06185032010506      2.88409650456701      1.17499513056583
  C   -0.53653128194276      3.86166166171642      0.23135565409470
  C   0.64943187404052      4.61247245561391     -0.36090886077610
  C   1.74981265571277      3.68947671403782     -0.90245369019233
  C   2.72412259796008      3.18276716980993      0.19797999441354
  C   3.08748364324115      1.73009485362874      0.07253359309274
  N   4.17479639694139      1.40990373722028     -0.62408385307254
  C   4.51782900235302      0.13613637783523     -0.73576140315400
  C   3.79640888744861     -0.90812301230446     -0.16231146986116
  C   4.24498089141126     -2.25690352743644     -0.32681521765804
  N   4.62776527796659     -3.32799048100315     -0.47459300001221
  H   -0.08476290336811      0.19086054528580     -0.44183786292795
  H   -1.18960233946919      4.52379943325218      0.79536683496158
  H   -1.11361039987757      3.35187507133313     -0.53824883195223
  H   0.26037128645656      5.23998039921653     -1.16615269848148
  H   1.07361617719597      5.28580577292553      0.38814530705988
  H   2.33316331423528      4.22352248571527     -1.65151668318042
  H   1.28945426001722      2.84873250078887     -1.42474392506278
  H   2.28424898026649      3.34598062786457      1.18120144627695
  H   3.65350937789408      3.74742610999683      0.14669429405389
  H   5.41292222485337     -0.08883908669146     -1.30365153543967
