22
Coordinates from ORCA-job 18194optt
  Br  1.48164748990950      0.15163556253180     -0.44574768865303
  C   3.32377807453794      0.03209337133065     -0.16177774224944
  C   4.09872740308430      1.12580875593672     -0.03360794443574
  O   3.52564975030239      2.36746673818727     -0.10847093973435
  C   4.23303478276301      3.51617353363990     -0.07670108458784
  N   3.75470671960345      4.65028117551422     -0.25981664088227
  O   5.56338206900754      3.41324644560256      0.20171076508386
  C   6.18350169963000      2.21994527122020      0.32269698751546
  C   7.63589473608450      2.45041406410494      0.59637460561411
  O   8.44339567469428      1.58292183846892      0.76531522540553
  C   5.52880725192261      1.04406053339183      0.20551122122675
  C   6.17013168657786     -0.25174894691454      0.30787267458438
  C   5.40683199797426     -1.34974203963757      0.17498677562539
  C   5.66140868965756     -2.77532045729506      0.20893176719710
  C   4.45902940505056     -3.35212726196174      0.00025446695385
  N   3.40525301563501     -2.42290851327383     -0.17067884568784
  C   3.95539886656611     -1.25934745099812     -0.06893921454448
  H   2.75934857276518      4.59678911600056     -0.45574859640204
  H   7.89740805720394      3.52136236990098      0.63064220841445
  H   7.23382355962645     -0.29249597144069      0.48632060124868
  H   6.61203082896948     -3.25660790874129      0.36719255142946
  H   4.22980966843400     -4.40590022556773     -0.04632115312199
