27
Coordinates from ORCA-job 18191optt
  Br  1.15696600793567     -1.48891264931960      1.54061576148135
  C   2.57398488442282     -0.43330817025422      0.86155401461196
  C   3.24340972541115      0.46181736896873      1.70644696799624
  O   2.51313230605429      1.11419042766995      2.68631721933586
  C   1.62639103196479      1.99142237588449      2.06965530313749
  N   0.54541632794652      2.37912159340974      2.56150414600899
  O   2.10416704655794      2.36347781304395      0.87913316985899
  C   1.24053881101286      2.87176834084989     -0.13606527398559
  C   2.00465627108886      2.89983001133769     -1.46350394525726
  N   2.09764865766546      1.65909781528805     -2.23500162047153
  C   3.36532059237518      0.93172166757589     -2.29934999600457
  C   3.71236375229825      0.39121881525998     -0.93201418654794
  N   2.78523118186650     -0.42465610097654     -0.41913919572677
  C   4.70682020234070      0.93456350410454     -0.11464080404318
  C   4.42471275236879      0.99531484594140      1.25704887249198
  C   5.82675261643453      1.63595698476596     -0.65642927697730
  C   6.77281318368003      2.21970092455013     -1.10595868243968
  H   0.36572793091766      1.92889821570978      3.45366648669305
  H   0.92772277557693      3.88051089315050      0.13822876307970
  H   0.34900225784632      2.24057789019826     -0.18866143821079
  H   1.49848963459862      3.64835754147577     -2.08086906337590
  H   3.01153539067050      3.28137044013245     -1.27230176862961
  H   1.34326794560627      1.02166783209008     -2.01362222384453
  H   3.24724030495692      0.12350454813063     -3.02042571219062
  H   4.14822781274459      1.60046784246570     -2.65529715621753
  H   4.99318823591837      1.65950734337519      1.89554465256850
  H   7.61427235973942      2.73481188517159     -1.50443501334132
