22
Coordinates from ORCA-job 18209optt
  Br  1.12217395905472      0.04513626875483     -0.03273771291866
  C   2.98502845274839      0.06063058959977      0.06844742915657
  C   3.71918816973580      1.18585496010878      0.02773099897462
  O   3.20693502147442      2.44423477014882     -0.08290625675173
  C   4.17550753444796      3.41208195919759     -0.12121396495042
  N   3.97643470113931      4.63730684871392     -0.22169249583635
  S   5.80504940916450      2.71271976834001     -0.00593528955957
  C   5.14163717229008      1.10687071073214      0.08731443591710
  C   5.78106341974338     -0.07966682296811      0.18872779777084
  C   7.25385075048523     -0.31303662513030      0.22438138996435
  C   7.68285962801771     -0.95992431009411      1.54036368613373
  O   7.24781877672729     -0.62628748279533      2.60129663015512
  C   7.69512304043873     -1.13800640890645     -0.98351784606819
  O   7.22773570441776     -0.99544845488953     -2.07338840395822
  C   5.00073182721497     -1.30497674904600      0.25038977120942
  O   5.50071786783900     -2.41311712691620      0.35258503063513
  N   3.62564633977535     -1.14117190825006      0.18207417831106
  H   2.98531182420328      4.86317175588910     -0.27681259779469
  H   7.80068760430350      0.63710197330625      0.16131530146641
  H   8.45656878387020     -1.74558149948436      1.45619067486117
  H   8.50541648537607     -1.86729414907047     -0.79766485429556
  H   3.08051352753227     -1.99159806724030      0.22405209757787
