19
Coordinates from ORCA-job 18204optt
  Br  3.68433494420818     -0.97534441928570     -2.20791635195663
  C   3.30982075089194     -0.11626411852231     -0.59902615683753
  C   2.11619980675016      0.45445367840972     -0.31549850962237
  O   1.13331323192675      0.51568732643389     -1.23005203210413
  C   0.22126015854203      1.55338609135253     -1.35686885603441
  N   -0.61841874610077      1.56567554682752     -2.26919452686447
  O   0.19860069758086      2.51518624694469     -0.39278502889066
  C   1.35043416414827      3.16970407040075     -0.06796737759062
  O   2.26774913979330      3.31411016389794     -0.81370905173958
  N   1.23618398562288      3.72872735364015      1.19903000315907
  C   1.83626672392760      3.39858844316043      2.23966291346548
  O   2.74822070773416      2.37592502178531      2.46705877114930
  C   2.87311024989088      1.41481853223384      1.54346454007018
  O   4.10093265965288      0.99325767766858      1.39563167761838
  C   4.38907562660771      0.03117818875725      0.36286201118623
  O   5.46799474417211     -0.44676159256205      0.37147442101949
  N   1.85588817387109      1.04386984958508      0.88080336539510
  H   -0.53580915722342      0.74166871068726     -2.85882121909055
  H   1.72484213800337      3.95513322858511      3.16185140766771
