23
Coordinates from ORCA-job 18206optt
  Br  1.36821882569377      0.30521250412008     -0.37249724200219
  C   3.17498532280000      0.09855703043780      0.02801883194681
  C   3.76589739995263     -1.09751207813323      0.00295783720633
  O   3.08604831143692     -2.22771975008056     -0.31990121487590
  C   3.69189760911087     -3.44327593524519     -0.33627627789401
  N   3.10577288432418     -4.50826380656376     -0.59459387274033
  O   5.02802861289273     -3.49824086086216     -0.06232119033715
  N   5.75833436716286     -2.39144211745685      0.27897456866818
  C   5.17255985835229     -1.26048474300133      0.31291513344494
  C   5.98014233264640     -0.07776929778234      0.67633489231212
  N   7.27117259205612     -0.32176399764853      1.00359638492079
  C   8.20628499844549      0.74846011135123      1.26450878972333
  C   8.51601640851960      1.56459028846107      0.08313956367335
  C   8.75804401995324      2.22345722968639     -0.88582498472861
  C   5.38638462205686      1.13730964811303      0.67409600707203
  C   3.97207508819189      1.32295645075283      0.36979075472834
  O   3.44664543923177      2.41199682311157      0.38041512072365
  H   2.12155401528964     -4.34882741897617     -0.78811207137964
  H   7.62871299058896     -1.24177021675204      0.80006311977321
  H   9.12285520906443      0.30683108355399      1.65347720232518
  H   7.80390773976944      1.39229260731676      2.05156666580661
  H   8.97186410806499      2.81224786364871     -1.74611343382350
  H   5.93459724439485      2.04315858194872      0.88778541545645
