21
Coordinates from ORCA-job 18201optt
  Br  1.10010340474693     -0.35775486981273     -0.13473922283648
  C   2.95853388139935     -0.17885404300285      0.02127655579469
  C   3.73608368292730     -1.27572389339740      0.13228161107628
  O   3.11519535871730     -2.49382549375142      0.10841096934795
  C   3.75128930364149     -3.68511593451910      0.15659757382221
  N   3.19025564631212     -4.79206715689424      0.16794952783150
  O   5.11715430205078     -3.65295752211854      0.17887549125148
  C   5.77028168180781     -2.48250791114705      0.26630968619691
  O   7.09310098582122     -2.59077570111871      0.35588027054097
  C   7.75200322827412     -3.81771308588909      0.37881608379450
  N   8.99310896932380     -3.88336948610139      0.40056831969660
  C   5.16302716729926     -1.28586711280260      0.26683898948993
  S   6.12063952495137      0.16379538564975      0.45305560949542
  C   4.98212408585252      1.45646898466305      0.04646486558545
  N   5.37673759401005      2.63722727152311     -0.12632439115186
  C   3.47120953898368      1.20059282356687     -0.02597630460560
  O   2.74409619917510      2.14560181002718     -0.13936318681415
  H   2.17961434168710     -4.69512367360040      0.13641110939766
  H   7.10255150168693     -4.68387204370903      0.38019759723366
  H   9.43363380336379     -2.96322977214768      0.39259985202185
  H   6.39025579796791      2.73807142458232     -0.06913100716899
