21
Coordinates from ORCA-job 18200optt
  Br  0.22970737161542     -0.11258842438104      0.74200916438427
  C   1.96089474930285     -0.39266397716632      0.06236241613940
  C   2.91096408196975     -1.12058343798149      0.78901136978379
  O   2.49136832321273     -2.00341679294112      1.74164844289914
  C   1.55082124904386     -2.91854208499803      1.35963046889412
  N   0.99173237713870     -3.62788917123913      2.20727313634577
  O   1.40815443675375     -2.90390876556064     -0.02154569937578
  C   0.16616264091784     -3.04920234958125     -0.57948798479160
  O   -0.70886116165171     -3.66312544994449     -0.04556251984569
  C   -0.04386483836237     -2.46245925141428     -1.92910721267091
  C   0.24294064385738     -1.32867642259302     -2.59025333716734
  S   1.12712828049014      0.17261312625477     -2.49159507809343
  C   2.32848607845069     -0.05919834013548     -1.22490796687329
  C   3.68424242769606     -0.06085407759055     -1.55484360296847
  C   4.58497807061844     -0.49460366288334     -0.60109603589358
  N   4.18649532362053     -1.10935666985662      0.51453276797131
  H   0.33501624587364     -4.26961023400587      1.77532939386177
  H   -0.76842115078863     -3.08172270321748     -2.44551162309858
  H   -0.28705516535769     -1.24809064012943     -3.53645281252529
  H   4.00728064896699      0.23014362408371     -2.54447655522591
  H   5.65282936663161     -0.45026429471886     -0.77395673174969
