21
Coordinates from ORCA-job 18205optt
  Br  1.89379900756485     -2.24544373769211     -0.75198686222491
  C   3.12316189166917     -0.87264790095888     -0.49073209237740
  C   3.09834514357422      0.30108822569939     -1.14021740547449
  O   2.02392093124417      0.72105619891526     -1.89485188603158
  C   1.09585032023185      1.53995521986184     -1.26982309528121
  N   -0.05874236097459      1.71250019131611     -1.68726649107843
  O   1.61936586352421      2.11638144607922     -0.13872086495509
  C   1.12447428118854      3.29188482735307      0.41439366078684
  O   0.26678883071149      3.95335835186189     -0.04904752291476
  S   1.93473896130885      3.77602351025032      1.95227337591699
  C   3.18746708289205      2.55153799838793      2.11679305634238
  C   4.16914698290593      2.54599934432644      1.20838304617479
  C   4.49316351567045      1.28126548424888      0.54246019174195
  C   4.00124490044233      1.32203171055375     -0.71695349091137
  C   4.53472805894530     -0.01030897708150      1.23413435740714
  O   4.97978523665096     -0.24560238347445      2.30903084823591
  O   4.01973825304432     -1.08397288641488      0.48105207021244
  H   -0.22785011559785      1.15580466680514     -2.52098636187664
  H   2.94722629884960      1.67535767340740      2.70644803386379
  H   4.34803954131674      3.44342742026709      0.62530215176355
  H   3.93160737483734      2.26830361628807     -1.23968471931990
