21
Coordinates from ORCA-job 18219optt
  Br  2.14649824253836     -1.50723269873991      1.18840642587962
  C   2.81481979683166      0.00428490673874      0.31783350159693
  C   2.26792024846223      1.22383441868576      0.38987113626658
  O   1.19034840222002      1.52221967894005      1.17405631734015
  C   -0.08783794591689      1.30973497704328      0.69522236266903
  N   -0.45421939823093      0.48486181731208     -0.16498810241777
  S   -1.26554646346296      2.40576475595571      1.48314809707281
  C   -1.09586306017120      3.76028472084568      0.30297350002123
  O   -2.02625467750660      4.43992496124300      0.01064266172147
  N   0.17143175766230      3.83741759310159     -0.29296565992714
  C   1.34412997112870      4.04423246092575      0.44823943308528
  O   1.32164183979047      4.50395026234029      1.55403050082364
  C   2.58750873539191      3.60814308142852     -0.25387792000331
  C   2.96646537323132      2.32381253383066     -0.27098531515367
  N   4.19865553934909      2.01417267642201     -0.91290343966678
  N   4.64503204866204      0.85973250210449     -0.97384799131349
  N   3.96436427646302     -0.16464643149063     -0.41322801695281
  H   0.31317102600357     -0.07770646716437     -0.53429242850772
  H   0.18920485024790      4.03072467744537     -1.28521540640374
  H   3.24849082473464      4.35465384871297     -0.67380261616063
  H   4.43003861257135     -1.05516427568105     -0.46931703996968
