22
Coordinates from ORCA-job 18213optt
  Br  0.98907046941516     -0.56587521947950     -1.81474190004387
  C   2.09802412770366      0.35375738516329     -0.55891364200489
  C   3.11136053022511      1.17847994527915     -1.19235792436618
  O   2.75677065011039      2.02462296767768     -2.23860000776207
  C   1.82250025587438      3.00882185269609     -2.01870516043614
  N   1.22088361224696      3.56323758024054     -2.96089551291705
  S   1.49569145644383      3.46219172235310     -0.30596809275411
  C   -0.11252588403553      2.77161809060628     -0.26700319225472
  C   -0.75491346640099      2.19721015259971      0.75169428389156
  C   -0.39062204343838      1.94201046495449      2.15823632020354
  N   -1.24927705132555      1.74474538733220      3.06913924528313
  S   1.27814614949329      2.02749682808325      2.81793046268212
  C   2.35138105279302      1.14176623271492      1.76292620224104
  S   3.94621584317484      1.29665079721929      2.02645641382709
  C   4.41713287361935      1.08119358433858     -0.96290452987592
  O   5.55778699616561      1.00176133634356     -0.87362284936642
  C   1.75546562097186      0.29333739002019      0.73281399035887
  H   1.47604081629242      3.14640716883375     -3.85777990876898
  H   -0.62752879665808      2.86025793972566     -1.21696443722562
  H   -1.77304386361095      1.88532897438674      0.53603239081662
  H   -2.20025277277392      1.81719978120816      2.70229670306868
  H   0.90869342371350     -0.31822036229714      1.02193114540333
