22
Coordinates from ORCA-job 18216optt
  Br  2.25644855250145      1.78634637823614      2.67037389735023
  C   2.25848667046925      1.11072115345974      0.92710997876590
  C   3.02564791356984      1.66166759036705     -0.07361884365136
  O   3.60369467140888      2.88835427375201      0.05516465350317
  C   2.73777217006135      3.97226702553552      0.01119686030330
  N   3.02112766551380      4.96628596569528      0.70419028019161
  S   1.40463141625093      3.84361794920340     -1.20195710454671
  C   0.13967459513479      2.95991385168291     -0.16612630611763
  O   0.07567279214495      3.14135303149350      1.00905162326483
  C   -0.67183472442663      2.04005216802800     -0.96921815049383
  C   -1.10706582141304      0.84932992410542     -0.52644203488715
  N   -0.98994417157106      0.29598455766189      0.73683225144061
  C   0.09787685014668     -0.08989872287843      1.24633136982738
  C   1.38731230046935      0.09772910051374      0.51115628416159
  N   1.49584746050928     -0.50622788779625     -0.65981545997460
  N   2.44422062691426     -0.15614248035409     -1.50649132817716
  C   3.14054423788203      0.93836827199165     -1.26142363802873
  H   2.36539843168267      5.72553291449012      0.54370613648280
  H   -0.83589712880592      2.29414816801672     -2.00755246246479
  H   -1.66313975584047      0.21749317729187     -1.21161280276095
  H   0.09279684773728     -0.48585450485568      2.25776455730944
  H   3.81172839966031      1.28295809435950     -2.03861976149795
