24
Coordinates from ORCA-job 18214optt
  Br  1.86691139000544     -1.67552539251592      1.99159253093913
  C   3.31865503376833     -1.52950575645015      0.81726597824240
  C   4.53335101385590     -2.03637259028867      1.05302412024448
  O   4.85852050662232     -2.93533384435799      2.00491351480892
  C   4.09043442294461     -4.04577285603539      2.28887008047541
  N   4.08539563505615     -4.55626389208228      3.42971004955861
  S   3.04802462097954     -4.80469654654975      1.06073819183940
  C   3.76694094937601     -4.38394980910314     -0.49010694219500
  C   3.13232455048091     -3.71001642464871     -1.44781130743122
  S   1.57488116449974     -2.86245281575201     -1.29660092324828
  C   2.31039327001686     -1.25607761112881     -1.41775390659000
  C   3.15790758648725     -0.83389320062596     -0.47042796740035
  N   4.12332699946675      0.17103513149587     -0.67696009335234
  C   5.45290555793596     -0.17957738553229     -0.45230933667909
  N   6.47347636210532      0.46689420633776     -0.82324875835241
  C   5.68157483340123     -1.49125566693821      0.28963216591023
  N   6.81051571844219     -2.04907926662660      0.33944812568123
  H   4.61238695716758     -3.98676028392059      4.09068096689237
  H   4.75158777139871     -4.79094278926231     -0.69549170677951
  H   3.62412743716168     -3.58403613922634     -2.40670615595890
  H   2.21652694773115     -0.72043827165959     -2.35496576077324
  H   3.97441988128554      0.76966690017409     -1.47835683294524
  H   6.24644494660125      1.32786613044964     -1.31629022537945
  H   7.48696644320950     -1.47651182575263     -0.17484580750716
