21
Coordinates from ORCA-job 18220optt
  Br  1.47229703982003     -0.41204591881528     -2.03488165751583
  C   2.64899813576142      0.18408760331144     -0.70160607209307
  C   3.25296064160005      1.39083703163149     -0.83336973843166
  O   2.95753607187344      2.18135375285538     -1.91730966528438
  C   1.85555112216030      2.99006132631452     -1.81717578795801
  N   1.15543433318857      3.19567205030072     -2.82376134186647
  S   1.64376453275502      3.69029838982448     -0.15208424239296
  C   0.04633627110260      3.01407972591805      0.24870798683073
  O   -0.86473461542160      2.85572593830445     -0.48866932879481
  S   -0.13766342452939      2.62603886590110      2.04847064122988
  C   1.08572825751060      1.33584328934358      2.14593953690681
  N   2.30980623391256      1.54785789301830      1.93674925879218
  C   3.21819062137792      0.52166597174996      1.68221078559324
  S   2.66408578556802     -0.89960246802046      0.72986463125622
  C   4.40994007824350      0.89258150284234      1.16070462931769
  C   4.26757428105587      1.96331335580347      0.13635707729321
  N   4.81206410885932      3.07111841873686     -0.09747571343138
  H   0.40967445872203      3.85998100260587     -2.63733834536524
  H   0.66124335179836      0.34438874638795      2.31378609707121
  H   5.13531694045650      0.11972727721104      0.93115380530992
  H   5.46289577418485      3.32501624477471      0.64372744353272
