22
Coordinates from ORCA-job 18222optt
  Br  2.39492580386600      2.61145014309920      0.06712500392282
  C   3.65031822638110      2.14878661501028      1.38030745458513
  C   3.50499514338390      2.83710186757252      2.68141875194204
  O   4.54846333008510      2.61995685320287      3.53355765006916
  C   5.74828159594489      2.25127568623793      2.91217463982572
  O   5.59077994881212      1.09083514986415      2.13509239383338
  C   4.59764729007999      1.19608040765149      1.21864527362978
  C   4.72125375936371      0.21481703447112      0.15112246981350
  C   3.73130290394612     -0.59833860327964     -0.22916123897866
  N   2.51496452587740     -0.67505851264526      0.43113544982312
  C   1.39143106606674     -0.55574190586360     -0.12686052523148
  C   1.15239243031480     -0.17869349550503     -1.57260656226818
  O   2.02093418058165     -0.20755357046589     -2.39161971738637
  N   0.19483841089080     -0.72955904681779      0.56195869823277
  C   0.00970447270404     -1.09196087450469      1.70907871080348
  O   -0.28856148474034     -1.43741841783102      2.76365643826722
  O   2.55702084344552      3.46547329561471      3.03346472773884
  H   6.46560974147833      2.02751687164680      3.69393321709851
  H   6.09213732458533      3.06280313518738      2.26172627034285
  H   5.69951550786976      0.10528606900757     -0.29728080208449
  H   3.89855970231643     -1.31433689667007     -1.02588768750893
  H   0.11448527674652      0.11527819501692     -1.80298061647025
