24
Coordinates from ORCA-job 18226optt
  Br  1.06688886464226     -2.60375772184704     -1.89086046296272
  C   2.91998776441458     -2.51328573195857     -1.57973482369696
  C   3.52781327060999     -1.31690624524350     -1.73214255643372
  O   4.85642481105173     -1.20442172042722     -1.52013018410413
  C   5.38338303333122     -2.37386082629561     -0.92593212242864
  O   5.11698899465165     -3.47380795973053     -1.74026506920995
  C   3.79488229575271     -3.60538588732382     -2.06249906562055
  C   3.45116105671380     -4.29242328874983     -3.16235612640401
  N   4.36983606903356     -4.82279664247387     -4.07340816757133
  C   5.13187426138802     -4.05974522056182     -4.75173456267650
  C   5.41407847565030     -2.60214392048095     -4.76392596684552
  C   6.80432154514634     -2.31543540585829     -5.21264942121962
  O   7.31872143422991     -1.22651714389586     -5.24782565036861
  C   4.74776184375218     -1.47287279370464     -4.39094955562585
  N   3.43440308480979     -1.26371688886365     -4.07713129354831
  C   3.12327484330393     -0.43138541607757     -2.90084894144169
  O   2.68410915301850      0.65903216003026     -2.94484230759569
  H   6.45810404632214     -2.25278449896805     -0.86232207422254
  H   4.91342046841048     -2.50166269465639      0.05478556208448
  H   2.40604942183894     -4.45252699045472     -3.39004761772893
  H   5.80689454045268     -4.59909677848371     -5.41849845941609
  H   7.38351772765773     -3.20647147661598     -5.51894044041404
  H   5.35164157965622     -0.56869992005328     -4.37888099757948
  H   2.88446141416118     -2.12132698730530     -4.05885969496947
