22
Coordinates from ORCA-job 18225optt
  Br  4.34135851253446     -0.58845429948445      0.34594723236239
  C   2.90773823390248      0.06778691870919     -0.73855708935179
  C   3.22106785007366      0.99763240057570     -1.74665415713064
  O   4.17556580465001      1.89763820245388     -1.45542922598414
  C   3.89615666603387      2.41401891837645     -0.11419524449715
  O   2.58250695544509      2.14117837123022      0.32923924178420
  C   1.95944421464980      0.98256158554298     -0.08116530872393
  C   0.61485418152927      0.89911877089573     -0.10964741102222
  C   -0.32636034883409      1.99981356232765     -0.28627367490355
  O   -1.49847599578334      1.98833618648031     -0.12056158963712
  O   0.29200664018521      3.14328502658078     -0.90466119283631
  C   -0.06112528495434      3.40293526547919     -2.18969273449523
  N   0.73393601627496      3.25170691931975     -3.15878477281013
  C   1.97534014295841      2.73000408671260     -2.80370508274732
  C   2.21523214467879      1.41431265837087     -2.69965017370262
  C   -1.38972651381557      3.94365282474552     -2.40769247470347
  N   -2.42977334446404      4.39058220892648     -2.57690883632740
  H   4.62490958322171      2.00549081006768      0.58174505374935
  H   3.97517061501826      3.49453447231905     -0.20547674133241
  H   0.17656313353886     -0.08266318435193     -0.20787446315043
  H   2.71958850986115      3.45922899991098     -2.49938200309844
  H   1.47302228329534      0.68629929481134     -2.99461935144163
