23
Coordinates from ORCA-job 18231optt
  Br  3.89016623912786     -0.79870850511578      2.82444446509303
  C   4.90112887990770     -1.01981432033305      1.24216343474846
  C   6.22209242890830     -0.98979867262417      1.42263148015194
  O   4.72603773425088      0.89142939390907     -1.61765132379337
  C   5.43403540732508     -0.06294808955805     -1.55528716792596
  O   4.97612465967956     -1.29756340635105     -1.12953689214137
  C   4.16211773414024     -1.29552413631390      0.00377735495547
  O   3.00785800431833     -1.54972642870271     -0.06332274945370
  C   6.90194756747901     -0.05901516951088     -1.68698465322783
  C   7.61690082193620     -1.19072459101735     -1.59406415383301
  C   8.79047646204674     -1.18469739009458     -0.75950412476642
  C   9.13245926932051     -2.26684032682252     -0.02270598400541
  C   8.97952981505027     -3.64954260643171     -0.52877047735980
  O   9.25911945683998     -4.61848902196153      0.12667397463636
  C   9.43950780205521     -2.08101842400121      1.39732761659744
  C   8.55227225827993     -1.43439709400035      2.16100711547241
  N   7.37131544078981     -0.86085240012412      1.69529028280821
  H   7.35224080388670      0.91485091632774     -1.53440947577954
  H   7.12463060156572     -2.13684075299212     -1.77773680019245
  H   9.10416758602140     -0.20883148114526     -0.40223896493432
  H   8.63999131544058     -3.74667084289963     -1.57495572225674
  H   10.28240641121369     -2.56036038111205      1.87582328125944
  H   8.69547330041608     -1.28691626912475      3.22402948394714
