27
Coordinates from ORCA-job 18234optt
  Br  1.02160729042250      0.07573982837426      0.22226187657255
  C   2.90373084820125     -0.08163544159145      0.21430729164977
  C   3.49370002131060     -1.31840585970638      0.29624982485943
  O   2.95689624734506     -2.56303130095597      0.41850985382255
  C   4.05213019342317     -3.45666065131563      0.24973593668026
  O   5.24885274843049     -2.69579889670941      0.42522512224118
  C   4.87343959604133     -1.39737375697030      0.30575115974318
  C   5.67188676535880     -0.27990535670869      0.22682396261345
  C   7.17256231482384     -0.33606843185140      0.22496776746011
  C   7.75706226856784      0.97157835354484     -0.29684390051622
  C   9.26127908619037      1.05409791208675     -0.03379589068371
  C   9.98536629429824     -0.03269884068541     -0.68877375908427
  N   10.52636738036647     -0.89529379604113     -1.21438278583836
  N   7.10709491657799      2.06987477157031      0.40018402615415
  C   5.71219898062456      2.22640889092813      0.00635080532745
  C   4.96185847564810      0.92710986761436      0.14181551133532
  N   3.63663843855733      1.01489489574402      0.13422195560644
  H   4.03608418170103     -3.86707509747354     -0.76363677061113
  H   4.00268976990659     -4.23599561301595      1.00529960617163
  H   7.51550455985886     -1.17874217555025     -0.37900172496749
  H   7.53352512631072     -0.49975169764456      1.24546166463917
  H   7.59042620314904      1.02205428112448     -1.38482768676392
  H   9.44334800145798      1.00993725518382      1.04203203376967
  H   9.66014401952849      2.00185344906712     -0.40204296839536
  H   7.60307419172610      2.93875329868652      0.24182354904705
  H   5.60597206745811      2.56700976328055     -1.03465790350285
  H   5.23456001271501      2.96912434901489      0.64394144266992
