24
Coordinates from ORCA-job 18249optt
  Br  1.35359361274305      0.62235155491257     -0.06131545542487
  C   3.13626825444271      0.10171176967290     -0.04052800828571
  C   3.57070961314819     -1.15532886008768      0.02062916736908
  O   2.89794109196476     -2.33231610124215      0.09900247184502
  C   3.87479075509908     -3.35015244781339     -0.06737685131709
  O   5.15455962563018     -2.74194837549969      0.12294782872131
  C   4.97476294797023     -1.41112850414406      0.05579342743686
  C   5.89642865501001     -0.43486802646364      0.04126380392310
  C   7.37945264729754     -0.58552628202454      0.03832100345694
  C   7.96138013951765      0.01720290890054     -1.23982755318191
  O   7.42429337948193     -0.13446131030113     -2.30155413178504
  C   9.25192223742515      0.80054918093385     -1.08732815568398
  C   9.01510838002514      2.05991593159030     -0.27002674164941
  O   9.34558180566034      2.15694572974180      0.87724325879976
  C   5.39639604439665      0.92601429700856     -0.05980848964139
  O   6.09323314074390      1.89998299728179     -0.13800011199494
  O   4.02259527499063      1.11537493784549     -0.07776747294366
  H   3.82245882542441     -3.75355304284164     -1.08040790079370
  H   3.72864390246645     -4.11824484845812      0.68766488595859
  H   7.65843918333114     -1.64125383269697      0.06427563053774
  H   7.81980162702505     -0.09264107491488      0.90785964161432
  H   9.61000024941145      1.05622886899071     -2.08376067995113
  H   9.98253423837705      0.19338116165260     -0.54925389417045
  H   8.51310436841717      2.88676336795679     -0.79704567283942
