22
Coordinates from ORCA-job 18252optt
  Br  1.02323549597460     -0.49017827827624     -0.21188942727554
  C   2.85546940603890     -0.13073725929163     -0.08223181852906
  C   3.76412781227077     -1.10513331625218     -0.15509485720839
  O   3.50748690588123     -2.42778438992376     -0.33411456594806
  C   4.74891647798104     -3.10376590027219     -0.31508387852553
  O   5.75730364849907     -2.11258127005682     -0.17595461378442
  C   5.18655259459131     -0.91233470017051     -0.06190766761637
  C   5.86319094342479      0.26395030073839      0.08840373941300
  C   7.36285803756519      0.22824063828726      0.17333499626873
  O   7.95592978199080     -0.79178242709019      0.43249583684904
  N   8.01390455676701      1.42765646923641     -0.01070836931549
  C   9.23337346560905      1.52220724660763     -0.75967539980195
  C   7.98645920533082      2.21959697910347     -1.20710186911562
  C   5.12693650188162      1.52325219497901      0.17674835639467
  O   5.59367706309479      2.62409336480145      0.29776865694693
  S   3.31072207803836      1.52092622402997      0.12386327825047
  H   4.89729425898864     -3.63277271938819     -1.25593514802390
  H   4.79373235605525     -3.77730238860449      0.54095099063499
  H   9.54467694545123      0.63289722759159     -1.29486872036714
  H   10.02586971815839      2.09545868042558     -0.29753752688014
  H   7.46787452593851      1.80657294703402     -2.06555267218306
  H   7.86740822046854      3.28352037649143     -1.05690932018317
