25
Coordinates from ORCA-job 18256optt
  Br  1.03231052696630      0.05193550562111     -0.30561299403778
  C   2.90125218110123     -0.00234110998826     -0.20059930400341
  C   3.55921835002559     -1.19781550538105     -0.17873163909124
  O   3.05982482607613     -2.45302326584709     -0.19157963605468
  C   4.18971406067284     -3.31577476193080     -0.33919743779407
  O   5.34786084508350     -2.55198109549957     -0.03512045762718
  C   4.94650162803964     -1.24579605691603     -0.10101998214716
  C   5.66674065380709     -0.08981623022118     -0.05883617763756
  N   5.03503567465522      1.09716895483837     -0.08140680164110
  C   3.70452089920865      1.17376945924676     -0.14098981178088
  N   3.03529508280709      2.37483031279201     -0.14312985283781
  C   3.66302721074438      3.49532525882378     -0.09584365271612
  N   4.98048923717463      3.79670235366287     -0.05636688370186
  C   5.21855276000947      5.22084916316531     -0.01359150137726
  C   3.80449429979636      5.79013988262249     -0.01741108600765
  N   3.39229503045153      6.98217466866697      0.02280352883972
  N   2.97671865297324      4.69369767694896     -0.07779736742846
  H   4.23562741743562     -3.66279155228894     -1.37536286070725
  H   4.10227075023371     -4.14231632108399      0.36156348803922
  H   6.74742151601915     -0.08555576756896     -0.00015087658845
  H   5.65190103191980      3.04285387224553     -0.05212877027486
  H   5.77046012232759      5.57724760186024     -0.88619261846167
  H   5.74963355497497      5.52918732365836      0.88930199347039
  H   4.16568422284351      7.63951032011093      0.06467722962184
  H   1.97114946465269      4.73681931246217     -0.08727652805473
