22
Coordinates from ORCA-job 18254optt
  Br  4.64486166468673     -1.04423526963871      3.10836956560016
  C   5.05349267517417     -0.73222670332128      1.31749935014803
  C   4.56607464787988     -1.51430726507969      0.34227152406873
  O   3.73931480039854     -2.56603590662159      0.43006572500980
  C   3.69111826698869     -3.16210557694769     -0.86796710824422
  O   4.24280688037712     -2.22460669417045     -1.78004149722785
  C   4.89628664476519     -1.30057656033991     -1.02567874182735
  C   5.67518951461776     -0.28965784757798     -1.40152232864536
  N   6.16002527769164      0.57792316770705     -0.41211029482801
  C   5.99933673307006      0.32546203052118      0.96791716363136
  N   6.64573270195855      0.89629365825703      1.91264983567973
  C   7.59909539718714      1.87657774185774      1.75765130241798
  O   8.72387832612278      1.80705203554375      2.15551021297150
  N   7.11085219029469      3.07665135050885      1.15990545550170
  C   6.76623450121093      2.98083236609960     -0.04664584364811
  C   6.80153193124505      1.75357215717729     -0.90408931636396
  N   7.24371663406335      1.75609601067439     -2.08493758947332
  H   2.65507636693151     -3.36050778552294     -1.12998009349455
  H   4.29343038207739     -4.07296104564411     -0.86041506103593
  H   5.94382271146714     -0.04808174084589     -2.41524697112682
  H   6.43610975094174      3.87447714264913     -0.57674130926026
  H   7.60501200084980      2.67136473471421     -2.34246397985324
