23
Coordinates from ORCA-job 18253optt
  Br  1.22521433205691      0.42549265314465     -0.34038518540764
  C   3.04936438110724      0.13528830155691     -0.13021358537085
  C   3.62409408209768     -1.06548436907516     -0.11653984593751
  O   3.09706138103906     -2.31562138496308     -0.21567063756459
  C   4.19226500203982     -3.21273442021281     -0.28022580236224
  O   5.36938490623689     -2.46250290411971      0.04670952550713
  C   5.03344615427355     -1.15867436687605      0.06115673211965
  C   5.82265036556756     -0.08530649707530      0.21810204813558
  C   5.19276468360149      1.22159072206082      0.19943568361837
  O   5.73555007517341      2.27520138731245      0.31928330861725
  O   3.79530704380073      1.24046931030144      0.01752850277771
  C   4.35292165889502     -3.79686066199558     -1.67466794137948
  C   3.06335201146137     -4.46615675021191     -2.19082918967250
  O   2.93377234433287     -4.03529448070603     -3.53910949848547
  C   3.78909163067856     -3.01489429551314     -3.80179713045395
  O   3.85643648910685     -2.45669189609815     -4.85055394284047
  N   4.53056849564625     -2.76734292340223     -2.66436193258656
  H   4.05630262719209     -3.98993594800806      0.47332189303042
  H   6.89062421921646     -0.12861226890145      0.35746689753491
  H   5.19476667926083     -4.49583002029484     -1.64364734213725
  H   2.19210511228662     -4.12898215388809     -1.62849834911661
  H   3.11757744835364     -5.55179793753207     -2.17509531208621
  H   5.40137887657505     -2.27431909550257     -2.78040889593969
