22
Coordinates from ORCA-job 18264optt
  Br  1.17508456957367      0.10803970546124      0.17885865014100
  C   3.00881672903919     -0.11235815191232      0.03793325167051
  C   3.64448306341225     -1.26051047927099     -0.15956789755077
  O   3.22795409685226     -2.55323731699428     -0.25081612936843
  C   4.40057615754123     -3.30292444933985     -0.52123216779919
  O   5.52381855650221     -2.48324956391810     -0.23658527603916
  C   5.07530450285664     -1.21084184263452     -0.14962369527661
  N   5.81224378559530     -0.18936318533941     -0.05272723792751
  C   5.13531145625679      1.02138543966752     -0.01354166828421
  O   3.73718889644086      1.00485123824076      0.19458011572062
  N   5.72153905260156      2.12145614428667     -0.13796426088826
  C   4.95250133194202      3.34280909238375     -0.20831609742730
  C   4.66409243058507      3.68423292394673     -1.68031967135635
  C   3.90996779363245      2.61796533342034     -2.33899036164117
  N   3.33864654375170      1.74909040648479     -2.82141449973912
  C   4.42988329072390     -3.72076018866537     -1.94208419235725
  N   4.44720193543431     -4.08515458836184     -3.02586086623218
  H   4.42123340273529     -4.18054043569446      0.12173108392272
  H   5.55741731816673      4.14996172334907      0.20273567829327
  H   4.01376908601074      3.29893291996326      0.34692378934043
  H   5.60516291964390      3.81044076196737     -2.21687784406799
  H   4.09980308070178      4.61477451295964     -1.74984070313300
