19
Coordinates from ORCA-job 18266optt
  Br  1.03724862938356     -0.10954509325402      0.28741884883266
  C   2.87964532887679     -0.10413516303560      0.07194504275875
  C   3.59491165454883     -1.19220929722098     -0.18915934359882
  O   3.23370870846257     -2.48181744666105     -0.34207374128703
  C   4.41363401525884     -3.22481849139068     -0.63196748150774
  O   5.51196740964031     -2.33465171998931     -0.57454786456528
  C   5.02156151311558     -1.09256421654739     -0.33822464915595
  N   5.73371045811441     -0.05566814653939     -0.26028534661731
  O   5.01106617575488      1.09753117148484      0.00791560279086
  C   3.63703884218517      1.15199740672916      0.19547227778204
  N   3.08493981652032      2.24677610820465      0.45946289045234
  C   4.30939292858466     -3.82337352792845     -1.99708048788680
  N   4.34128306069977     -5.06866894224346     -2.23611133122984
  O   4.20885556573319     -5.15909032095766     -3.61743351410479
  C   4.09767767161131     -3.91418248400079     -4.14466075805972
  O   3.96622788461927     -3.62454786455952     -5.27435262405212
  O   4.16845663764419     -3.04058532494681     -3.07858825595387
  H   4.53755405278694     -4.02247112750018      0.10015002895548
  H   3.76311964645937      3.00502448035665      0.50612070644718
