20
Coordinates from ORCA-job 18265optt
  Br  0.94868675725156     -0.07423225330929      0.12115673468328
  C   2.79977666337227     -0.15486008565706      0.04541768508705
  C   3.48684217172194     -1.30559303238088      0.03691407986725
  O   3.07624445667460     -2.57685770846540      0.08253248295420
  C   4.24871654833467     -3.40847975584215     -0.01251131626196
  O   5.37820181324235     -2.53448256874466      0.05435083710136
  C   4.91534479626746     -1.27403368224245      0.00973099517264
  N   5.64810385485422     -0.23863953481005     -0.02287939651260
  N   4.95633046609870      0.93295979264517     -0.03162865416596
  C   5.75266899237867      2.11781042586824     -0.06750401906410
  N   7.00696936317877      2.14048576559891     -0.08752082356408
  N   5.01671100846875      3.32023592647632     -0.08169916802909
  N   3.76636904409401      3.34644610206352     -0.05302236814531
  N   2.99936525285155      2.21981942497138     -0.00548592721755
  C   3.59444951068089      1.06290509226847      0.00173018360107
  C   4.24893613787035     -4.16755332440291     -1.25840914297801
  C   4.26144454754531     -4.81649451013373     -2.26116680965652
  H   4.26731608128308     -4.06223092352401      0.85824577181622
  H   7.39852456509737      1.20217859061265     -0.07468881671000
  H   4.27399796873341     -5.39238374099207     -3.15756232797787
