29
Coordinates from ORCA-job 18279optt
  Br  1.22271759516941      0.17190031686475     -0.00191441548383
  C   3.09050469846408      0.18612352049893     -0.00151765372510
  C   3.77751399713754      1.34615840180490      0.01328911375147
  O   3.24736529976093      2.59634305691090      0.02975761486810
  C   4.25755121144763      3.52747373392741      0.04491904658434
  O   4.03811412155255      4.69069690717301      0.06254355846209
  C   5.60323052027539      2.80461530230270      0.03509585547089
  C   6.40407135472697      3.11016451973479      1.30947269740879
  C   6.97265807018876      4.52718017958274      1.31743793436074
  C   7.80343828919070      4.79325946151394      0.06559191373047
  C   6.97356364401762      4.56441346511559     -1.19424051853570
  C   6.40517887970455      3.14762529510792     -1.22916353787689
  N   5.13583027965744      1.42006541670137      0.01451814341566
  C   5.87981021417429      0.27544542746406      0.00048213480972
  C   5.28291992225610     -0.93028107802505     -0.01493830845201
  C   3.82507300430223     -1.08642226522845     -0.01594772428552
  O   3.27897541568549     -2.17271558799201     -0.02749692174931
  H   7.22744410740478      2.38954977350914      1.34733791507457
  H   5.77580265377317      2.92572810774517      2.18348824127374
  H   7.57824199145815      4.65509956485768      2.21561198403910
  H   6.15568663257697      5.24911432467377      1.37373560945720
  H   8.67358107641595      4.12713915441565      0.05606352383495
  H   8.18626985141558      5.81414502822963      0.08099030546443
  H   7.57974895273510      4.71996329445351     -2.08760024089528
  H   6.15648285417956      5.28755540793209     -1.22933338965030
  H   7.22853830428737      2.42839273923806     -1.28752567805995
  H   5.77747183587290      2.98954239974301     -2.10868447611576
  H   6.95306981461782      0.40753836008551      0.00243818258278
  H   5.87314540755092     -1.83481422834073     -0.02541090975937
