24
Coordinates from ORCA-job 18282optt
  Br  1.74927388032069      0.37305995206305     -1.64001258938468
  C   3.18030753337547     -0.11748557476160     -0.51622070622617
  C   3.83845796417574     -1.33961290101408     -0.72680390834780
  O   3.36096575618067     -2.09583884169157     -1.75218958277514
  C   3.47587159439994     -3.43715860365832     -1.99241792075649
  O   2.57225166056614     -3.98880305100356     -2.53070784990173
  C   4.77913732687880     -4.17334759405338     -1.69054632418699
  C   4.51321885841376     -5.34222278155109     -0.74933618685349
  C   4.19863916483139     -4.81455753958288      0.64986399260281
  C   5.28395036459009     -3.87332188293211      1.10550841250347
  O   5.75662678930649     -3.87859302142260      2.20551856888131
  C   5.75699485354220     -2.84698262299441      0.05801118272926
  O   5.83030872474033     -3.35361778853648     -1.25672698054615
  C   4.89371812705600     -1.60972931333643      0.13686661608871
  N   5.22319071308555     -0.75933349064814      1.10917167921978
  C   4.52819778838753      0.35331890579713      1.21870838352833
  N   3.51882574572166      0.71855501443993      0.43087236337306
  H   5.09606405905009     -4.55294295690913     -2.66321542216673
  H   5.40659649153409     -5.96818595539617     -0.72581404153328
  H   3.68841918572388     -5.93601025678115     -1.14012484491044
  H   4.08925391635097     -5.60683869791591      1.38776606227670
  H   3.25900360555831     -4.24680949903872      0.62762230476707
  H   6.76431952116936     -2.54899967855884      0.34196068184268
  H   4.80240637504077      1.03845817948649      2.01124610977588
