23
Coordinates from ORCA-job 18288optt
  Br  0.97665303488435      0.13170035485597     -0.07136374455020
  C   2.85243573436851      0.04078032736612     -0.06074588232146
  C   3.48279536825902     -1.17957257389995      0.12015665876351
  O   2.80247287452648     -2.30667714928668      0.46243936415559
  C   2.72593517280983     -3.34904096753683     -0.48269502832114
  O   3.97058227494919     -3.58662396281665     -1.09764663239696
  C   5.04292979572896     -3.60203294945979     -0.29078657826365
  C   5.94334770645669     -4.57168389644322      0.06328544711342
  C   5.89724136600756     -6.00645906267841     -0.21361906037390
  O   4.97525378864107     -6.56302485033581     -0.75505193070109
  N   6.98191466294458     -3.99380202136191      0.76646663447684
  C   6.71796487452104     -2.72751027687539      0.83990754714081
  N   5.53285749412102     -2.42271916547117      0.21117103957052
  C   4.88395147496253     -1.18150457476131      0.08986618369349
  N   5.62746890376360     -0.10210077240214     -0.02882745329348
  C   4.99872162634267      1.06334083489647     -0.16153457452169
  C   3.62067515453058      1.18691451115070     -0.20904021083851
  H   2.04666888923184     -3.09670157927393     -1.29625277541258
  H   2.39460798308259     -4.22267915579400      0.07634465590749
  H   6.79166737348756     -6.55688322912968      0.12707034746424
  H   7.30241558488412     -1.96354754690640      1.32572256785596
  H   5.62800973046289      1.94107718248097     -0.24160850898328
  H   3.15242913103327      2.15075052368308     -0.34625806616392
