25
Coordinates from ORCA-job 18285optt
  Br  1.40246680069598      0.10742324490345     -1.18610944119228
  C   3.15710087821976      0.00990796099672     -0.48647011140798
  C   3.73363803307278     -1.25101381312628     -0.28562371072753
  O   3.08600391002657     -2.37739596424724     -0.63272879572288
  C   3.65436187163258     -3.57091415396298     -0.11321093672521
  O   5.04560946352992     -3.60841566573884     -0.26256328714725
  C   5.68828078046629     -2.60521676852426      0.48125003896442
  C   7.13998670070694     -2.47391441452478      0.01908840262062
  C   7.83163803329244     -1.29155163418930      0.67168680075309
  N   9.04933269825605     -1.22530125181902      1.01292197968858
  N   7.02907661895378     -0.18041676199264      0.87233074776658
  C   5.70283558704814     -0.10105223727462      0.47122257214175
  C   5.03276511503476      1.09491335677996      0.24900072655424
  N   3.78301785235939      1.12230270695454     -0.20602311507825
  C   5.00836540446518     -1.28640142205068      0.24665024178988
  C   5.68232665412509     -2.90966103230535      1.98754235485948
  O   5.17323020607615     -3.87681147749960      2.46822069746365
  H   3.24466393452161     -4.38356415693375     -0.70269120332636
  H   3.37653778478890     -3.65817019976071      0.93809598830511
  H   7.12314818222539     -2.31672620560751     -1.06256893081126
  H   7.69694660000992     -3.38668801870893      0.22636662828427
  H   9.53502728942716     -2.09706933968233      0.82642675485690
  H   7.51345548612713      0.65253350688795      1.17356867439780
  H   5.51344790319252      2.04978017776457      0.42896021395373
  H   6.19573621174550     -2.15157643633837      2.60865670973889
