22
Coordinates from ORCA-job 18289optt
  Br  1.81378797653495      0.52226979892488     -1.55198801739731
  C   3.23541384341533      0.04332734760494     -0.41497414489699
  C   3.78304252988012     -1.24182230433423     -0.49254833599376
  O   3.20966099774498     -2.10240185129089     -1.37500480059204
  C   3.37099109589631     -3.45565249279827     -1.49827298153862
  O   2.42752452241555     -4.11574017213928     -1.78223863191402
  C   4.77090767358016     -4.07105486953043     -1.45250545624087
  C   4.77435723760866     -5.35237385099804     -0.63631822350296
  C   4.69285058308495     -5.02816496911265      0.83468591950904
  O   4.41817051142097     -5.80998045124381      1.68440910377128
  O   4.88815286782890     -3.71743355194225      1.16199905784475
  C   5.59837695970390     -2.80150703886254      0.33932814113549
  O   5.78902993218361     -3.23342266993423     -0.97411735947975
  C   4.84863424703711     -1.49224414478603      0.35983480448242
  N   5.29840393670408     -0.57811783547425      1.21086120852634
  C   4.69164210252883      0.59584281430063      1.21381778296121
  N   3.68350817652737      0.94641991757967      0.42199507884703
  H   5.01212295403118     -4.27838220636700     -2.49611594745777
  H   5.70559150109694     -5.89062672306962     -0.81627321349135
  H   3.94122633957621     -6.00554185170442     -0.88690798064793
  H   6.58292354971436     -2.64057707587685      0.77632588969996
  H   5.05068046148543      1.34218418105474      1.91100810637583
