23
Coordinates from ORCA-job 18280optt
  Br  1.19039686348669      0.02324886262585      0.04077452631249
  C   3.05291518564968      0.08319922123600      0.03680332564551
  C   3.76843191904176      1.24376512473974      0.03569851352509
  O   3.07651870367795      2.39903648991180      0.03653611441202
  C   3.70464410753613      3.62737442478253      0.03632677009201
  O   3.00404460079016      4.58906052756972      0.03672692345520
  C   5.18328925546986      3.62047336944038      0.03597658869175
  C   5.78924422816999      4.83488071889790      0.03694319720712
  C   7.21569545341440      4.90487965408509      0.03686169319002
  C   7.96479962279725      3.78501790604563      0.03563188893817
  C   7.39139968313734      2.44184906464137      0.03436958478954
  N   8.11989652248772      1.37578425204626      0.03324049388851
  C   5.91886165687981      2.38086643533348      0.03467200357085
  C   5.19177287917848      1.19683984511438      0.03414380948124
  C   5.73269432178271     -0.14398667517873      0.03229782813581
  N   5.01904823620731     -1.22816751901767      0.03279464263960
  N   3.70022531582652     -1.10330030374947      0.03531285540575
  H   5.18385064106280      5.72979252233955      0.03779307889886
  H   7.69582447661591      5.87554358381898      0.03783825359710
  H   9.04720390283611      3.84703877580191      0.03560684098707
  H   9.10619155002874      1.62565530846533      0.03335371841724
  H   6.80266388376319     -0.27386051207901      0.03036390885917
  H   3.17738699015945     -1.96599107687104      0.03593343985990
