20
Coordinates from ORCA-job 18293optt
  Br  0.83723800506029      0.55803560713259     -0.15475150092174
  C   2.67679133530212      0.26569918371178     -0.03708923694778
  C   3.55721443583761      1.25844244898882      0.08209413061901
  O   3.28587628806486      2.60226319212684      0.12834911206204
  C   4.47461400295765      3.31673911643719      0.15279377819884
  O   4.50847641668875      4.50091566047567      0.18466738848223
  C   5.56219222242722      2.30929991393487      0.12662777355490
  C   6.93701721348853      2.41029724372365      0.09909664733340
  N   7.67361280569133      1.30980207147040      0.03438172773569
  C   7.11195329577173      0.09239600956985      0.03257110130258
  C   8.21262431412698     -0.93533816234890     -0.04424916415735
  O   8.12140614240924     -2.11947345514294      0.12094342385770
  C   5.71491663739704     -0.12574207344700      0.07620024050732
  C   4.97633336942141      1.05613054151202      0.10129486217737
  C   4.97020980579315     -1.41981245094369      0.11196272878610
  N   5.37467702631416     -2.59675537680482      0.27056737432271
  S   3.17327309274465     -1.39838013986277     -0.11389670560656
  H   7.45358018998241      3.36267839772755      0.11433143429347
  H   9.18046777834161     -0.45532620333822     -0.25434105977065
  H   6.38852562217914     -2.66387152492291      0.35544594417072
