23
Coordinates from ORCA-job 18303optt
  Br  1.77068668368280      0.35481861445796     -1.06169718384097
  C   3.48228142309245     -0.20126455188201     -0.60139057353495
  C   3.80765220493844     -1.48506044014026     -0.34764875199286
  O   2.87335930417818     -2.47404173884353     -0.46065858694515
  C   3.06810024839500     -3.70108561520322      0.10437505253417
  O   2.21965530800899     -4.52290094541763     -0.03195081392552
  C   4.34261193522242     -3.93367621777912      0.89174710522433
  C   4.72810209393642     -5.43122174623667      0.80040748781685
  O   6.13350941171189     -5.53930413704667      0.70098208181915
  C   6.61061733024465     -5.01255633430729     -0.50010661039127
  O   5.99580028394004     -3.76767300540885     -0.80353237297886
  C   5.54078000485091     -3.13461574832499      0.37396031019482
  C   5.16258458290277     -1.72371397776732      0.02116233835902
  N   6.06520529216131     -0.80635555589243      0.10101327567465
  C   5.75062965259287      0.49289248904486     -0.22923555330016
  O   6.49224563445753      1.41348489327073     -0.26938708129504
  O   4.38828148885940      0.75720651401619     -0.54099252002497
  H   4.12320871783510     -3.64384616172733      1.92404252999275
  H   4.42897878017628     -5.97909423635193      1.68884461716001
  H   4.24405325872949     -5.88570097631222     -0.06767591229024
  H   6.38334324921985     -5.66717397282846     -1.34649667750142
  H   7.68678421135535     -4.88280144598675     -0.37527044137729
  H   6.33252889950779     -3.08931570333302      1.12450828062294
