21
Coordinates from ORCA-job 18301optt
  Br  1.23062619860073     -0.12437401489815      0.43198755204208
  C   3.07036884197114     -0.21792168472751      0.17101369322244
  C   3.68643001127385     -1.25957203549873     -0.42533975007322
  O   2.95656416225714     -2.29756477124240     -0.94296633077043
  C   3.03765170608773     -3.57326165563436     -0.40251940459460
  O   2.04593214847956     -4.22158348808092     -0.31725548531766
  C   4.38853220131168     -4.03268651597033     -0.06871259339083
  C   4.68071213258302     -5.14368582559837      0.65685662275791
  O   6.00390623819374     -5.31387614370908      0.72387585768323
  C   6.58768367777256     -4.30302023756510      0.02799056321484
  C   5.64849809246814     -3.48393975780663     -0.49038031437521
  C   5.82311808857944     -2.24352095095920     -1.30649891204206
  C   5.10335469670082     -1.12081968451055     -0.61449581960298
  N   5.78374871091461     -0.10881252164251     -0.19158744099666
  C   5.15843505532290      0.90722201464277      0.49433605713022
  O   5.67590317467379      1.84063317447671      1.00546170138510
  O   3.74136179127774      0.83550426464309      0.59616651767955
  H   4.06021508004853     -5.86594268076794      1.15871409553154
  H   7.66300383808067     -4.30449514563166     -0.00871947667724
  H   5.38240948472435     -2.38437308233574     -2.29811205735082
  H   6.87054466867781     -1.97490925718334     -1.41481507545519
