23
Coordinates from ORCA-job 18309optt
  Br  1.03505205924879     -0.35958580101225      1.66736996566571
  C   2.73881692766379     -0.40154863678103      0.88861917285992
  C   3.19000496587124     -1.49051066766850      0.23698798983734
  O   2.51130936212844     -2.67055911843093      0.12330542029379
  C   2.90721624958616     -3.43586269151628     -0.99471408573242
  O   4.28991840192148     -3.77197165136400     -1.00334794134352
  C   5.07470605158551     -2.68560583506779     -0.89643886701447
  N   6.29386948437901     -2.57825165757234     -1.22661776905580
  C   6.70688242798645     -1.22302971616848     -0.84645338690969
  C   7.84949372290781     -1.27366329481419      0.18700898233070
  C   7.41571828016177     -1.87350716662091      1.44482878440078
  C   7.01559128929648     -2.35812750789145      2.46412927214752
  C   5.47125662136713     -0.55922900587844     -0.28084938551253
  C   4.49832231705737     -1.48768879279947     -0.29622813411905
  C   5.32370122629655      0.73085596840870      0.34497360665010
  O   6.14571551962946      1.60311931871730      0.43123027755428
  S   3.69065870572802      1.03535232682153      1.09706155465198
  H   2.67308154091631     -2.88341708667091     -1.90957487821370
  H   2.36360154508449     -4.37130431278294     -0.94100515206758
  H   7.07894778966855     -0.70651800142164     -1.73477255733216
  H   8.19609310482729     -0.25408760091785      0.36635651595704
  H   8.67063407886654     -1.84969377472987     -0.24034661956234
  H   6.67340832782129     -2.78716529383823      3.37547723451410
