21
Coordinates from ORCA-job 18305optt
  Br  1.06425779774716     -0.09910196003541     -0.40687168130556
  C   2.91466109849429     -0.19097535799710     -0.17593236781743
  C   3.52349266838556     -1.31902257568462      0.26979071430646
  O   2.74470138924052     -2.36659539590666      0.69691519581262
  C   2.84151448649629     -3.62460914889364      0.14277599059881
  O   1.85788782509902     -4.27296790972139     -0.01591673885802
  C   4.19868729627876     -4.09625541563584     -0.08334641660129
  C   5.36920743278140     -3.51835530454472      0.30669971840595
  O   6.38888676200705     -4.32548573707891      0.10953081376737
  N   5.91253775174124     -5.52363067641668     -0.42595835072191
  C   4.63149229701394     -5.37508067464075     -0.53616178061343
  O   5.67551893691243     -2.34281186911793      0.83752129846240
  C   4.94937386943814     -1.24023716909275      0.42448045080081
  C   5.64674814069875     -0.11383253569117      0.18965873956993
  C   4.98666473940734      1.10031572248389     -0.24800593796147
  N   5.47883739477416      2.24814982032797     -0.49753841418852
  N   3.60957251847150      0.93873270268800     -0.43924662326525
  H   4.02588181436607     -6.18066156550316     -0.92159846740210
  H   6.72017374823269     -0.11577707500746      0.31057967468955
  H   6.48063539276979      2.26198261855221     -0.33898978157978
  H   3.12026663964385      1.75821950691615     -0.77238603609915
