20
Coordinates from ORCA-job 18312optt
  Br  1.35793585394305     -1.37188381244014      0.85795952168542
  C   3.13804568633931     -1.79413918198588      0.50939949318229
  C   4.12877159619197     -0.90246559769444      0.52989877692130
  O   4.03236973893757      0.44831594192244      0.66151222048270
  C   5.22783344410842      1.00590977232691      0.21955237071552
  O   5.40934121166064      2.17377570009588      0.18036077595171
  C   6.13594388378412     -0.13173905567830     -0.14277202708144
  N   7.26213764949689      0.06434220100979     -0.89592457811822
  C   8.29771396020310     -0.65927193339938     -0.74659510189704
  N   8.59686122086037     -1.45524182192772      0.34418440098997
  C   7.98307983635481     -2.49573712034176      0.68259780813872
  N   6.94519572616605     -3.20432527344212      0.04432093909532
  C   5.79864214863967     -2.67420849502829     -0.06620760500758
  C   5.46345042133424     -1.27070913629807      0.15357241983487
  C   4.61524060229008     -3.60451821285171     -0.32932578821614
  O   4.72356504808423     -4.70060913052586     -0.80110102504370
  N   3.40539517378765     -3.11368552260329      0.13288494348344
  H   9.10645099282760     -0.54826637386449     -1.46383834517839
  H   8.28289557300727     -2.99970118905956      1.60112603881182
  H   2.62913023198292     -3.75684175821397      0.06539476124944
