24
Coordinates from ORCA-job 18326optt
  Br  4.91886458459363      2.35186520605867      2.57546072789613
  C   5.33034357894237      2.03289075435962      0.76816920691244
  C   4.36521352800745      2.10222512685242     -0.17029479883928
  O   4.58992221387548      1.75360979393633     -1.44397873048537
  C   5.80885084274645      1.21292289163040     -1.86524693885908
  O   5.85776363365866      0.74504705395724     -2.96019723126091
  C   6.90140538753970      1.41286253425121     -0.93283932958936
  C   6.70328995097458      1.85754521318242      0.32704153949203
  C   7.83421245166769      2.35594013712290      1.15756172534403
  C   7.94206697285681      3.66591211361162      1.43055623970825
  N   6.95480517539144      4.55554090952297      1.02772916113122
  C   6.72016078582571      4.74895840894170     -0.20484307057196
  C   5.37122028573079      4.99929091126805     -0.73857807106672
  C   4.37925614916666      4.65694941044160      0.07891451001464
  O   3.15205862736786      4.17554620809768     -0.31779140459449
  C   3.04102618732089      2.81322800342379     -0.04262659131268
  N   1.96711988591376      2.23048935755293      0.19042438624384
  H   7.89472589710576      1.29375426193302     -1.34235298273946
  H   8.56387476884071      1.65443319464901      1.53832742617812
  H   8.72290097780005      4.04056184049455      2.08248942167452
  H   7.46480055511471      4.48642626206487     -0.96411772539321
  H   5.23729372488898      5.05097995613334     -1.81070509543157
  H   4.55656186614876      4.59248752589706      1.14554423930318
  H   1.18326196852100      2.88353292461655      0.21335338624569
