26
Coordinates from ORCA-job 18334optt
  Br  0.71030253458457     -0.69092127762239     -1.02984530086622
  C   2.11178254693498      0.56109184811091     -1.03825507862283
  C   2.67659876251946      0.98729718673207      0.11680894675909
  O   3.84681315535945      1.60267891068685      0.14386822806479
  C   4.56591304877942      1.88739929008612     -1.05231519140197
  O   5.72040662956374      2.13901605515569     -0.94882975851248
  C   3.68656116840642      1.95858313240003     -2.20300571769706
  C   2.48889670647294      1.33248485490839     -2.18938527653346
  C   1.38082824628394      1.79707145904811     -3.11881755692846
  O   0.75635162779916      2.91370487437272     -2.49368968031500
  C   -0.36040598925335      2.67369804503836     -1.64487531639451
  C   -0.20109107115484      3.36536572053796     -0.27901374746335
  C   -1.10732703438135      2.70099905137517      0.78483163339893
  N   -0.29288235252755      1.60248129453636      1.34282332380878
  C   0.88636859601575      1.89927181399030      1.02453122176146
  N   1.09420926054187      3.08619148756478      0.33169320177179
  O   1.98906520816811      1.09631047106556      1.27762169617107
  H   3.99144769632578      2.60911990278733     -3.01041967900072
  H   0.65766509788422      1.00838627166644     -3.33049221478474
  H   1.80376003422880      2.15933149162378     -4.05418495781583
  H   -0.50507789683271      1.60504936279722     -1.48788378092705
  H   -1.26051527068569      3.06567222099057     -2.12880481024127
  H   -0.35949723212410      4.43832669548555     -0.36997408155777
  H   -2.03101199305399      2.30277407278785      0.36482572119817
  H   -1.36356929004285      3.40648496146592      1.57797857646638
  H   1.90840781018778      3.19913080240833     -0.25719040033775
