22
Coordinates from ORCA-job 18335optt
  Br  1.63385633762526     -2.10189516619369      1.69550725829537
  C   3.17039974219885     -2.27743289976660      0.66382021794700
  C   4.60675618292398     -2.65949741058741      0.99421707160804
  O   5.30925195721647     -1.59164489977801      1.63419543067774
  C   5.66760156871583     -1.00168988780588      0.44079678279931
  O   6.31303993064237     -0.03115219412002      0.28670167517759
  C   4.96042447835344     -2.05566236430541     -0.44729242733157
  C   3.47487086487045     -1.75867613025595     -0.52450346892868
  N   5.64013845314270     -2.37508387066007     -1.64497413960756
  C   6.19866494787246     -3.45670326936849     -1.99267708356495
  C   6.21003077006073     -4.74885059793724     -1.29749643730542
  C   5.10873833375996     -5.21725591881315     -0.72367972095423
  N   5.08059745953848     -6.34185492408486      0.10867692009146
  C   4.66238227594528     -6.20355726740165      1.29153605623864
  C   4.18769054697378     -4.87594677426037      1.83939559045750
  O   3.20290203555779     -4.73666181469263      2.48528343905923
  O   5.03573051529856     -3.87667859458597      1.46606163450259
  H   2.91816739999273     -1.18154654994436     -1.24809645614207
  H   6.75104666605123     -3.40983159822873     -2.93208290503353
  H   7.14195721612491     -5.29916525778683     -1.24205881452388
  H   4.15904480076285     -4.70317563147407     -0.86774233965507
  H   4.56470751637184     -7.06503697794860      1.94541171619250
