24
Coordinates from ORCA-job 18331optt
  Br  1.09374775518932      0.17990350852044      2.17630985519906
  C   1.98684838359274      0.78333987382885      0.63396400572894
  C   3.02820498396087      1.64267043586669      0.72624751904515
  O   3.77886798567486      1.96012810368829     -0.32258448194705
  C   3.53440472211486      1.45639032842101     -1.61262356133913
  O   4.37333692878023      1.62142403575980     -2.43906007002883
  C   2.21421255318718      0.87408970175897     -1.76111848356096
  C   1.46533677586729      0.56356056401547     -0.68663323541055
  C   0.00375474158999      0.25609986085735     -0.82820878542665
  N   -0.85015325319966      1.41184101689273     -0.49435313954225
  C   -0.65138776137341      2.48466235409407      0.35503129332091
  N   -1.53622392703690      3.09198471693288      1.02890415395573
  C   0.70185247840205      3.18536248731498      0.35042114455176
  O   1.24508148320008      3.57524126237470     -0.63744869311775
  O   1.17395035701341      3.36415403490558      1.61103674951719
  C   2.54442568963671      3.63014123645129      1.74137008876948
  O   3.27940455334719      2.38712925420165      1.80663773587978
  H   1.83685206967083      0.79385583838875     -2.76997299825612
  H   -0.26142016205558     -0.59143006652332     -0.19084131144488
  H   -0.20217463218251     -0.01171477166720     -1.86366778212756
  H   -1.82825280551579      1.16083378744475     -0.52963118834699
  H   -2.45224892808944      2.64797384759736      0.96669066777407
  H   2.69884325740104      4.10624900141895      2.70154076113795
  H   2.90773675082462      4.22210958745590      0.90298975566872
