24
Coordinates from ORCA-job 18332optt
  Br  1.33194446939240     -1.79924410318383      0.06117558196741
  C   3.16587124769272     -1.41858143268833      0.25507409773749
  C   3.82141296348188     -1.53982635732033      1.49745602480622
  O   4.95562149538214     -0.81951617018730      1.60271444332564
  C   5.91070110025265     -0.79714592646588      0.54201124444637
  O   6.98337004345163     -0.33778876456906      0.79537204795932
  C   5.42114379707826     -1.39338946650056     -0.67311166757995
  C   4.03762509703184     -1.50939522184344     -0.81793020439389
  C   6.37888880291422     -2.16835316556789     -1.48530681666955
  N   7.61844705731228     -2.00431002653017     -1.67125058700468
  C   5.75242705632797     -3.52271708865114     -1.79207605572504
  O   5.00265595909976     -3.80593140938243     -2.67186382424232
  N   5.93614890685939     -4.39868740778778     -0.65303186997707
  C   4.79370261890773     -4.70143611124652      0.01726320921243
  C   4.66732166959849     -4.68064707355819      1.38613106759322
  C   3.59581870698749     -3.80405529040928      1.67458853540314
  C   3.79837374670865     -2.63496563170336      2.39989981246454
  H   3.63359007727911     -1.80576100661499     -1.78046884515332
  H   7.92137039716817     -1.10799033311449     -1.28499111455669
  H   6.73717334924662     -4.15422202362041     -0.08136538864534
  H   3.91295750497054     -4.70120975235732     -0.61809892350482
  H   5.55422746348656     -4.66313831313440      2.00896192943982
  H   2.76855167472247     -3.82854633657186      0.97363208898992
  H   4.58865479464696     -2.59914158699104      3.13821521410718
