25
Coordinates from ORCA-job 18333optt
  Br  2.14450609435064     -1.04102239167695     -0.84418878319197
  C   3.75697373497683     -1.74290610943506     -0.17873563642809
  C   3.65369669850315     -2.99420001966506      0.63857905399008
  O   4.16859532613769     -3.14005833324098      1.70636830055521
  C   6.55654659699513     -1.65974101749295      1.27093419187465
  O   6.87191061183476     -1.56034000809046      2.36852341655250
  C   6.21971195823573     -1.77072605457374     -0.00161789011751
  C   4.93488762825791     -1.19744023208638     -0.47158475400674
  C   7.08668805843998     -2.55937192591931     -0.92318710428580
  N   7.27478043205295     -2.31666578824817     -2.14265980020654
  O   7.69390152018486     -3.64773170834262     -0.37995879293344
  C   6.87436481018770     -4.54172435565477      0.37657415750684
  C   5.65158970207568     -5.00620406058568     -0.40762498690112
  C   4.62415632216801     -5.70920710359149      0.49481098028207
  C   3.18511296361385     -5.31329305158510      0.25921872549593
  O   2.26353416221481     -6.04989315389711      0.20384173657963
  O   2.94447376969198     -3.94911123525368      0.00454656953823
  H   4.95858210052872     -0.33536466664002     -1.13096217271315
  H   6.85139135011947     -1.43341801170358     -2.41639790500723
  H   6.55650369867077     -4.08248282890833      1.31595494234405
  H   7.52851603002951     -5.37759722081270      0.61857339034435
  H   5.96146054189561     -5.66569988702162     -1.21806725747231
  H   5.19977220254711     -4.14231040617867     -0.89918116307378
  H   4.83022243260663     -5.49157858591752      1.54536543835052
  H   4.64612125368007     -6.78991184347772      0.37687534292363
