22
Coordinates from ORCA-job 18349optt
  Br  1.19890439363966     -0.00345957760964      0.59422793195310
  C   3.03706184164561      0.10946602184326      0.39803421689704
  C   3.73290139888475      1.21333047950985      0.11927236422929
  O   3.26683633803138      2.45591291128215     -0.06958950214361
  C   4.38586980898730      3.28937501759438     -0.34368357105063
  O   4.23035471186122      4.44761472316474     -0.55197817562661
  C   5.57194677356581      2.43829046155928     -0.30249779328350
  C   5.16999201643395      1.17912187718029     -0.02286111654725
  C   5.81680602912482     -0.09340335929095      0.12383086426391
  C   7.29752845012103     -0.22796758806647     -0.00432335213418
  C   8.04767666831332      0.18068883758558      1.24969790761979
  O   7.52419116898809      0.47762240275875      2.28237100192829
  C   5.01303262834406     -1.12922498756735      0.41624858139213
  O   5.47636629643075     -2.38555973421018      0.65945428683234
  C   5.11483209825512     -3.36120031698902     -0.23280830443526
  O   4.51378375022221     -3.16812664038810     -1.23206893650424
  O   3.68468603673754     -1.07308062337310      0.57093704283410
  H   6.56325350561822      2.82459933540172     -0.46755460960821
  H   7.66584231980713      0.38908686895564     -0.83021850844370
  H   7.59397026084456     -1.25383505131529     -0.23637648795475
  H   9.14948853301380      0.17716385083025      1.14872433011757
  H   5.48767497112959     -4.32141490885577      0.13516182966439
