23
Coordinates from ORCA-job 18347optt
  Br  1.06197200494209      0.31455717921419     -0.15502706316022
  C   2.92878166416931      0.14525413265311      0.02995189648462
  C   3.63128745633427      1.34751799154092      0.05646203846874
  O   2.94408982623715      2.51351827791051      0.00896873938397
  C   3.69977988702887      3.65096968606354      0.36724925519818
  O   4.90010361921866      3.71203756564805     -0.32594552895497
  C   5.76043531697230      2.66782955953451      0.07648293731756
  C   5.02864883130015      1.34965926749370      0.09538524978611
  C   5.70099523838395      0.15058826392090      0.10578321237406
  C   5.01075228351082     -1.05977696110525      0.09529853790513
  C   3.60398678407953     -1.09011608684193      0.08167254051556
  C   2.86779727050738     -2.39280565968942      0.16812797377273
  O   1.68935755934682     -2.45878620699727      0.44420840925966
  C   3.61285487377731     -3.63300558781259     -0.06946299507836
  C   4.94262156942137     -3.75068461839472     -0.09513174432909
  S   6.05643968875689     -2.46106341566866      0.07057078563371
  H   3.88273601044895      3.62267806884837      1.44992957628457
  H   3.10201633581402      4.51391196360708      0.09201515432227
  H   6.17803725231286      2.88547744101373      1.06765085935602
  H   6.57937482391783      2.63754229890331     -0.64079608601047
  H   6.78585105367219      0.14705872389378      0.10182460102996
  H   2.99202725701031     -4.51604279121142     -0.14831168535784
  H   5.42205339283690     -4.71531909252444     -0.20790666420189
