26
Coordinates from ORCA-job 18341optt
  Br  3.79627851168500      1.13131999662612     -2.04605513639819
  C   4.90848243210362      1.30294236337774     -0.53776595936001
  C   4.48243972752527      1.89868099837011      0.60891604517279
  O   5.22064704281832      2.16736588749155      1.70959683250997
  C   6.66411325652338      1.90458645490515      1.75181938964461
  O   7.25644923352501      2.37021696961257      2.64785540034801
  C   6.91071392286425      0.98420490719502      0.62021976305018
  C   6.34908386374643      1.49025201082383     -0.51512353559082
  O   6.73054596518905      2.63057492531959     -1.12128389327353
  C   7.83391086684089      3.33490980072274     -0.64918027398259
  N   7.81427600506520      4.57539943421245     -0.54177849512035
  C   6.58502644918741      5.31245290533000     -0.84893105081669
  C   5.41940598869001      5.01022508068469      0.12319885660640
  C   4.18440495521083      4.47669074306225     -0.61245746287540
  N   3.15693144954024      3.86887058843281      0.23351612982960
  C   3.14259877400068      2.60728786980021      0.73201879536274
  O   2.20411857075051      2.08360152747210      1.27751435841648
  H   6.45750111475101      0.03325705158672      0.89182202997709
  H   8.69059433389619      2.71500581799138     -0.40295257972425
  H   6.27751195145371      5.08460418555310     -1.87457048006090
  H   6.84077089861857      6.36834986394210     -0.81574556610602
  H   5.14988051119610      5.90754609802751      0.68066688589036
  H   5.75297033551897      4.29020922581277      0.86726892855858
  H   4.49517726924109      3.76176646849797     -1.37324943453044
  H   3.69806449226074      5.29376018328931     -1.14567898901339
  H   2.28410207779739      4.35991864186013      0.35935944148579
