24
Coordinates from ORCA-job 18340optt
  Br  1.27844504355261      0.12264672603925     -1.59512927620569
  C   2.69523469022303      1.00709904934872     -0.69154697706462
  C   2.70774922027303      1.08050771014228      0.66824939922868
  O   3.60724753728675      1.73335576733986      1.42648225503941
  C   4.75010602639451      2.43425169050721      0.79921478090149
  O   5.39546792443298      3.11098267284913      1.50201863519793
  C   4.75914941157915      1.92181128177508     -0.58493003737593
  C   3.52749468891845      2.13090118000589     -1.14968280085762
  N   3.02206046562021      3.42221308227832     -1.16158869079363
  C   1.74761338611917      3.54928591950410     -1.15610170649988
  N   1.13811365086105      4.71749158710430     -0.79733604099175
  C   -0.03952089505962      4.72155791900348     -0.01639800714553
  N   -0.69764325215969      5.75978427551793      0.26508747439229
  C   -0.50428072271893      3.38744936492686      0.56790925316467
  N   0.62019353067754      2.53795033679100      0.87624212282658
  C   0.55973538170027      1.40252333279226      1.38149833290562
  O   1.67853516628504      0.61111295664232      1.43333634796397
  H   5.08553210973805      0.88568523851359     -0.57299569169408
  H   1.05829130763720      2.75643076430805     -1.42516791787746
  H   1.76964099788431      5.49337837767507     -0.63571319804946
  H   -0.33904815992130      6.58647134024451     -0.21136182694052
  H   -1.15089487639577      2.89632144219409     -0.16751478916917
  H   -1.11703015873475      3.63788637311219      1.43424072671844
  H   -0.29319247419331      0.88190161138450      1.81418763232625
