22
Coordinates from ORCA-job 18359optt
  Br  0.92819494772504      0.22442568070069     -0.02434883459865
  C   2.80916108040373      0.16677414042636      0.01623359071943
  C   3.48544638348543      1.37468478286484      0.04756248800356
  O   2.80444601850221      2.54296898194143      0.06094200657381
  C   3.60183109827237      3.65447382490800      0.43699953964880
  O   4.77318616129636      3.71580300917185     -0.29844906250856
  C   5.64025500861170      2.64427907243144      0.02015448265618
  C   4.88392400465656      1.34333630762144      0.04628816597556
  N   5.57409556158920      0.21894891757318      0.05249432224638
  C   4.92183662832673     -0.93646258782662      0.04445657508415
  C   3.52074240183856     -1.04208251040102      0.01662681924276
  C   2.86517506451348     -2.32989809847027     -0.00212151942813
  C   3.47962450456947     -3.52031941728663      0.00561649415003
  C   4.92434883983130     -3.74084202101995      0.03104136662906
  O   5.43242086389293     -4.83247006839977      0.03490320786419
  S   5.99527357184166     -2.31806028867710      0.05795167882665
  H   3.81878635520144      3.57435436266446      1.51036994626283
  H   3.01121891996543      4.53735028470583      0.21608108079180
  H   6.12801885911944      2.81350291913492      0.98756901645083
  H   6.40738039989038      2.60322394302430     -0.75037238101004
  H   1.78349936288053     -2.31809835680861     -0.02142565626379
  H   2.90113396358602     -4.43589287827878     -0.00757332731683
