25
Coordinates from ORCA-job 18353optt
  Br  1.06874444926155     -0.21571632986534      0.32316775613278
  C   2.94129614799760     -0.15246810262523      0.21439173958133
  C   3.63104854352006     -1.31578746587704      0.10879086830845
  O   2.96176426144733     -2.50890581818247      0.11798636003960
  C   3.71532297018793     -3.58805521779905     -0.38355729112079
  O   4.95078339160549     -3.67042214207983      0.24637362530793
  C   5.78360953742949     -2.57969550348892     -0.10436351415315
  C   5.05027211408770     -1.26987361189817      0.03460645596179
  C   5.69279378244887     -0.07960399899396      0.05892524784617
  C   4.98599502434010      1.17268448190661      0.13916995191920
  O   5.50075811960778      2.27622769011670      0.10900634601333
  N   3.58332439640704      1.05433907355146      0.27094793135359
  C   2.87101050519630      2.31501070595048      0.27011005055081
  C   2.53919490645106      2.76108153514959     -1.13950258761056
  O   2.76153756180050      2.10151628715635     -2.11055135585465
  C   2.93909562601215     -4.84464474901988     -0.01215273704023
  O   2.54123597634304     -5.62324427144132     -0.82352884765397
  H   3.82439771160287     -3.49848736118919     -1.47192044058082
  H   6.13537318156364     -2.69769750435074     -1.13581301419725
  H   6.64446758715747     -2.61155312187012      0.56045861718024
  H   6.77038157608038     -0.01128032520301     -0.00602343181134
  H   3.51936348080113      3.06628023774665      0.72078184616905
  H   1.95405961965386      2.24880903274394      0.85352396685488
  H   2.06535406888668      3.75739465882276     -1.21016897049605
  H   2.78181546010988     -4.97190817926024      1.07334142729966
