28
Coordinates from ORCA-job 18355optt
  Br  1.01334114269705      0.65049622018815     -0.84503041971581
  C   2.85172870605164      0.42529656229966     -0.62399450524751
  C   3.65946876385154      1.33231237866133     -0.03512388030937
  O   3.31227875037899      2.51983555639937      0.47880791638716
  C   4.49253526526831      3.12045087222079      1.01332494445801
  O   4.42685075901877      4.19617770991757      1.52352890487694
  C   5.57546009059666      2.18906651613284      0.78116957062580
  C   5.06034109988997      1.10178721360869      0.13480975932368
  C   5.60689110940534     -0.11780047739598     -0.37693012263917
  N   6.96004870251870     -0.35869747295929     -0.19927322781061
  C   7.58878059022942     -1.46120376686702     -0.89919066480674
  C   9.07601707417618     -1.51783102912407     -0.59086210937380
  C   9.35700974924562     -1.81862940187429      0.87199799264594
  C   10.82224027751840     -1.88148458637348      1.20126088674989
  O   11.70243824412970     -1.70587306131896      0.40483990486157
  C   4.75070552172117     -0.98830975097670     -0.98711683661841
  N   3.40741558633745     -0.72924930868855     -1.08759880834247
  H   6.58303019053328      2.38142489999377      1.10631412418478
  H   7.50647406223293      0.49322915230603     -0.20530751414975
  H   7.43063718287809     -1.38734063569126     -1.98402574887304
  H   7.11472779230929     -2.39004218736695     -0.56507642102981
  H   9.55064683023168     -0.57302484487156     -0.86942504620506
  H   9.54425837413707     -2.27966026705441     -1.21547716136585
  H   8.91452149326532     -2.77627287775888      1.17155688688739
  H   8.89772260747278     -1.07650865640197      1.53352826876688
  H   11.06153702095633     -2.10817999242769      2.25822293491061
  H   5.06989266515022     -1.92437233715256     -1.41700438921476
  H   2.80700034779799     -1.39959642742460     -1.53792523897650
