26
Coordinates from ORCA-job 18363optt
  Br  1.12952135719588      0.07341193222937     -0.75601301450851
  C   2.91939724223669      0.03433843487445     -0.24316090370789
  C   3.67776131365065      1.09583238407505      0.02505472132774
  O   3.36237529728850      2.39558977340529      0.00978365773863
  C   4.54837580650774      3.11558214221176      0.36617499377745
  O   4.51551163163237      4.30350286098726      0.41388473453996
  C   5.59307312187213      2.13776540413616      0.60111332998398
  C   5.07021735747345      0.90328344902939      0.39436446078340
  N   5.61354296715107     -0.34264252244744      0.48676590680900
  C   4.83465716085671     -1.34908311818278      0.20717338720197
  N   5.32359051012767     -2.61304014955565      0.22473339680953
  C   6.69453250645309     -2.89118220097580      0.60761929547767
  C   6.90891038448440     -2.79189715480350      2.11769985025199
  N   8.26570968123043     -3.14960032282597      2.47530737983672
  C   8.67005997679247     -4.43931905395215      2.45997824763755
  O   7.95296411524788     -5.36678774825654      2.15805992498592
  N   3.51448641554991     -1.22040316052548     -0.13457138473956
  H   6.59464947877016      2.40823739462786      0.88427695000408
  H   4.67202512894973     -3.37920968793294      0.21588545084923
  H   7.34508856452956     -2.18361696044749      0.09543899181826
  H   6.93724066097073     -3.89939043014509      0.27649165002596
  H   6.22594440249258     -3.47571149099305      2.62496195359401
  H   6.70925335385419     -1.77568368175266      2.45147311263692
  H   8.92907273959602     -2.43460786676906      2.71970509277796
  H   9.72261068292397     -4.57086947927965      2.75438818250015
  H   2.99542814216196     -2.01949874673128     -0.46158936841212
