20
Coordinates from ORCA-job 18360optt
  Br  1.05300751618088     -0.37312377398846     -0.24430201182387
  C   2.90388747515666     -0.24824894945509     -0.07825840215023
  C   3.55221759711451      0.92296709434353     -0.02695014660816
  O   3.02624192562544      2.15311105455630     -0.07436527563091
  C   4.08834955886786      3.07403881376825      0.08784351792952
  O   3.88205465490597      4.23766562254403      0.09554805899214
  C   5.33069147124979      2.29198469473663      0.22174672072709
  C   5.00232400372853      0.99397820663407      0.14629509015627
  N   5.80346856019128     -0.12116348216388      0.14644799255827
  C   5.20864356915349     -1.24417461406369      0.07816404178766
  O   5.97590300692607     -2.33430920387073      0.00092852703198
  C   5.48120177253463     -3.46142219365695     -0.66435956356263
  N   5.83023629989292     -3.63705461083800     -1.84758709516932
  N   4.72991703357834     -4.29143373584879      0.16107298561064
  C   3.70117934233930     -3.77081677991564      0.69707910931302
  N   3.12227641300526     -2.54170208479073      0.43920515883961
  C   3.70791509653491     -1.44719953023205      0.13294463457335
  H   6.30126558732925      2.74208133106523      0.34457991047614
  H   5.47684593221581     -4.52914103135046     -2.18921192592052
  H   3.11637318346906     -4.37903682747358      1.38017867286998
