23
Coordinates from ORCA-job 18366optt
  Br  1.01035299738225     -0.27912063604412     -0.10415317548509
  C   2.85929307122647     -0.04098730388341     -0.06102272153975
  C   3.44378824206489      1.16552567715735     -0.13191778854136
  O   2.90087990797127      2.36824459023165     -0.23948261703555
  C   3.98955548646957      3.32395537368999     -0.27825518036240
  O   3.73650899444412      4.47940396714942     -0.37790469302162
  C   5.21579419409254      2.56042992511921     -0.17972216644778
  C   4.87310653849849      1.24977618968956     -0.09127234406892
  N   5.62524714931263      0.10529928439452      0.01985757982453
  N   5.03772955697238     -1.01450727872853      0.08998721396249
  N   3.71077220649315     -1.12450082026398      0.06500902651588
  C   3.23412740957879     -2.51083175124713      0.08889190461126
  C   2.79005129621292     -2.96974665763602     -1.26329095980762
  N   1.70264133917109     -3.71062351723862     -1.38597366157425
  N   1.61730748207335     -3.96828976380721     -2.69074269832266
  C   2.61009617924079     -3.40457669207728     -3.40767960721411
  C   3.40782797803058     -2.73910696840640     -2.50941003368968
  H   6.19271328506384      3.00915608951393     -0.18131820834297
  H   2.41605448504581     -2.60706593130425      0.80002222536726
  H   4.08550908543838     -3.08866140372856      0.44205868383183
  H   0.85057884193959     -4.52262766153549     -3.03184760873605
  H   2.67271190504900     -3.51704345072371     -4.47653510170209
  H   4.30035236822799     -2.17410126032091     -2.71629806822132
