22
Coordinates from ORCA-job 18365optt
  Br  0.99097767852764      0.05375087723514     -0.14075559547929
  C   2.85608215889655      0.07939950642057     -0.06881543090163
  C   3.57225132727493      1.21910885663993     -0.05079338197572
  O   3.15944810891490      2.47790494353805     -0.08190630864687
  C   4.32305686428267      3.31812008740848     -0.08153691101692
  O   4.19016261578579      4.49812364320167     -0.11540208767920
  C   5.48957074480360      2.45360811769758     -0.03284791001636
  C   5.01037021818247      1.16887609021712     -0.01654435954706
  N   5.57291925679245     -0.05741068391914     -0.00966623293790
  N   4.89011697988093     -1.21423197182146     -0.02745897856225
  C   3.60139739108398     -1.14772210118642     -0.04845274644008
  C   6.86025080384363      2.93931557091712     -0.03388540483969
  C   7.21943082654212      4.17151466272275     -0.59156093452293
  N   8.47351912565369      4.59661653799805     -0.62312952962303
  C   9.39324794826955      3.79700018723185     -0.09218445545252
  N   9.17176782018220      2.62602517704826      0.49155522363537
  C   7.91182633858665      2.21515393685864      0.52231103557529
  H   6.57427086492605     -0.17298362356779     -0.03019622279160
  H   3.07626415358499     -2.09337179515761     -0.05703820198187
  H   6.46433156886534      4.82322837283924     -1.01466178624804
  H   10.42179699639934      4.13633457775589     -0.13255115195257
  H   7.73094020872047      1.27863902992207      1.04452137140484
