23
Coordinates from ORCA-job 18372optt
  Br  1.21153480446181     -0.29386185140072      0.32963048773160
  C   3.07924022876723     -0.16547233380785      0.18238044915030
  C   3.64285885311420      1.05175471199337      0.05740190639002
  O   2.97633470813000      2.21405020399925      0.02286448726345
  C   3.91034734737167      3.26596389891594     -0.15479249938773
  O   3.53673056313690      4.39157566367887     -0.22933716710661
  C   5.22604352646612      2.65197414298788     -0.21329278135655
  C   5.06065586587792      1.31450479833653     -0.08499401972420
  S   6.21423324416803      0.04714476059369     -0.07236964565079
  C   5.21915373898619     -1.34688857670383      0.11219108655809
  C   3.87563506851905     -1.38305573700728      0.20312992731761
  N   3.24999126293735     -2.65179364792933      0.26269329527270
  C   2.80327720542858     -3.14356031356880     -1.02765265407458
  C   1.59964075113964     -4.04247489437380     -0.86619905789506
  O   0.99748962405040     -4.13984412448750      0.16952939301066
  C   1.20608129189218     -4.75991536436241     -2.07238862960798
  C   0.91773392609575     -5.32653734403309     -3.08713648063697
  H   6.13243284116196      3.21792612889952     -0.33882211617834
  H   5.77824253196701     -2.27168279936023      0.15092316607032
  H   2.46776017718623     -2.66899020937550      0.91061588599945
  H   3.59387151728762     -3.69950935933586     -1.53910137322107
  H   2.48847226034242     -2.34129521762502     -1.71330542163160
  H   0.64823866151172     -5.84101253603384     -3.97996823829270
