26
Coordinates from ORCA-job 18374optt
  Br  1.02630450026264     -0.52255201722949      0.77108567826254
  C   2.77866103782685     -0.25604493868005      0.19496566473493
  C   3.63438797241949     -1.27169236919221     -0.04529985561484
  O   3.34916537566504     -2.58483679620876      0.02326689400095
  C   4.52226941023748     -3.27981636671380     -0.23708283440517
  O   4.46192768891292     -4.59173924138673     -0.17390974949265
  C   3.31770483634746     -5.20042858188879     -0.82595079289755
  C   3.48507417064226     -6.68041250624631     -0.78524191913684
  C   3.12638405275055     -7.41198198421387      0.47171121897137
  C   2.24375777284813     -7.52181504257454     -0.73183551911962
  C   5.52289701310670     -2.42988426323660     -0.46471853836516
  N   4.96665612775575     -1.14038955485213     -0.33573014552269
  N   5.68405217363961     -0.02703423553871     -0.17165840445261
  C   5.06051306346813      1.07826150188160     -0.02155634108326
  S   3.31843786800284      1.33859022266297     -0.21250469934551
  O   2.86489871423796      2.28958616413549      0.75843046176795
  O   3.08835877611332      1.60804547223010     -1.60267632848696
  H   3.27026876827471     -4.82157253028870     -1.85009027974071
  H   2.41420579940135     -4.89915911930392     -0.29269171326989
  H   4.31585488067678     -7.06654522960148     -1.36087876083404
  H   2.77389265209322     -6.82009749859594      1.30547696474411
  H   3.72662331172721     -8.26728403221697      0.74429411057687
  H   1.29124820879587     -7.00987220374938     -0.70726438234607
  H   2.24276287257859     -8.44837588839817     -1.28646044804098
  H   6.55606140140235     -2.58504648164496     -0.70853803067271
  H   5.63963155081272      1.97309752085137      0.17185774976854
