25
Coordinates from ORCA-job 18375optt
  Br  0.80119599614871      0.08307586070957      0.83840474692937
  C   2.10509312441516      1.43533406509857      0.70186226108573
  C   2.68038112564551      1.79454281132762     -0.45810273557330
  O   2.18683745148661      1.60642775860538     -1.70374669689724
  C   0.85156821193822      2.06661705004902     -1.94706801632913
  O   0.77009303907875      3.46250563097905     -1.99269376257790
  C   -0.33426850073870      4.08703242939561     -1.29691950343417
  C   0.04100375028702      4.26817802672547      0.13598798229278
  C   0.11569279087944      3.24265363751477      1.03021464250261
  C   1.28654114784849      3.42856878330698      1.83549590222620
  C   1.76720757467412      4.68947050675421      1.49349512105247
  N   1.01714161733784      5.18282273061833      0.48941146108087
  C   2.36136157821479      2.40709483576791      1.80469065614305
  N   3.55541497741499      2.68413404196602      2.16547393740637
  C   4.59048923096335      2.23035737627174      1.36852912363655
  N   5.69030484460273      1.78976981992403      1.78097266893757
  S   4.23914544372557      2.60560391568962     -0.40544575654476
  H   0.17066495331319      1.66373031581598     -1.19759835076217
  H   0.63131606919107      1.65322613798414     -2.93025951367805
  H   -1.23619107865488      3.47855532955963     -1.38200871974666
  H   -0.49736175203067      5.02578328183716     -1.82414181524118
  H   -0.48861404790701      2.35502353182269      0.97496979295871
  H   2.67350525374580      5.17287357063653      1.81822060796417
  H   1.21323175097812      6.03668402920173     -0.00596484105125
  H   6.32724544744175      1.57193452243822      1.02022080761936
