23
Coordinates from ORCA-job 18379optt
  Br  0.68595688134153      0.43220273606154      0.32121122695627
  C   2.54599160909785      0.24732911450199      0.49497276494622
  C   3.32766740247303      1.24583880286179      0.93473432915212
  O   2.82870138192248      2.44642495288245      1.31660726590371
  C   3.50665435371500      3.08325099669793      2.39739632339983
  O   4.48353558594781      3.97595756561521      1.99260266996454
  C   5.56188885850942      3.49968849589754      1.19047433209994
  C   5.78010896446085      2.01990499194124      1.20839100267499
  C   6.96630778414205      1.32936524390351      1.24870966679366
  N   6.71095084486655     -0.00368967824737      1.07094727592088
  C   5.37223082460247     -0.17397233796397      0.92225309289242
  C   4.76057511697233      1.05024867394435      1.00353381166663
  S   4.43310074968910     -1.63397979586894      0.80433409373911
  O   4.13727845841149     -2.07365005193698      2.12515262823718
  O   4.99138624027105     -2.54026880388148     -0.15068520971739
  N   3.08651462491176     -0.98975187604026      0.10597376162760
  H   3.90845840354348      2.31286205272492      3.06136510389455
  H   2.75600720017667      3.67720215203011      2.91073542672633
  H   6.45844587408083      4.01930861832973      1.52910593550687
  H   5.36143054272384      3.81266226489012      0.16171456709353
  H   7.97565525459161      1.68771534853905      1.36296059646044
  H   7.39542542942141     -0.74143915533151      1.05522535309479
  H   2.96572761412735     -1.28021031155096     -0.85771601903421
