22
Coordinates from ORCA-job 18385optt
  Br  3.74697967955383      0.82586139892718      0.15140753056688
  C   5.10461511366309      0.20972362344067      1.38499226448063
  C   6.40371094353500      0.52260358280711      0.99562909736208
  O   6.73610438735243      0.42559504308118     -0.29847765753196
  C   6.25725413326009     -0.86121938109393     -0.78343193662939
  O   6.72763668690691     -1.05088232994586     -2.00839433390143
  C   7.86960138322519     -1.95631513147139     -2.09796339069463
  C   8.93340671506524     -1.33052402900353     -1.25326412767154
  C   9.85191049037409     -0.39633819361563     -1.63274109968104
  S   10.28773148120128      0.56091090358523     -0.28996653317662
  C   9.22131735196921     -0.36112496647755      0.69411680714013
  C   8.67702418499655      0.07756579736269      2.00510636863222
  O   7.33640077242771      0.65559712832009      1.91343625237326
  N   8.65494978463565     -1.34658848202083      0.08134656810428
  N   5.55565488815640     -1.65546528660233     -0.12327985699976
  C   5.28915224379940     -1.30412927952767      1.26948476736295
  O   5.36486505549885     -2.12322909528313      2.12212713165739
  H   8.11311147498906     -1.99436797581575     -3.15464495682914
  H   7.56475306493144     -2.93224122358565     -1.72353627855694
  H   10.22997626053350     -0.19146635936570     -2.62117353814387
  H   8.57092771222981     -0.77879501429928      2.66912150536903
  H   9.26891619169515      0.85482927058408      2.48010541676749
