26
Coordinates from ORCA-job 18383optt
  Br  1.09239355799477     -0.59464269308334      2.59593710232567
  C   2.53143229554439     -0.10472297627023      1.46799582713666
  C   3.37062529272758     -1.10946741087567      0.97456664419416
  O   3.16662813843420     -2.38708187080410      1.42346777725474
  C   2.91785308983569     -3.45686274593612      0.60025945828839
  O   2.50736479106797     -4.45816181124222      1.08488152264912
  C   3.25812927517812     -3.27770676325087     -0.85967302471111
  C   4.74685607797109     -3.03683392165398     -1.06083285256489
  C   8.14727762283361     -4.26182461046288     -1.62090089433296
  O   7.73063573076630     -3.19161079478285     -1.96923875059540
  C   5.64451483451499     -3.04634249033456      0.08210939556332
  N   6.20120375109259     -3.75649246340245      0.94669277496555
  C   5.34420007326849     -1.71735503854424     -0.48032311339300
  C   4.42255024686545     -0.74192035724783      0.13732403733431
  C   4.55847715223364      0.61622066980131     -0.15119048665056
  C   3.67996615060636      1.52632678023677      0.40091715435502
  N   2.67672889650802      1.16894816006506      1.20081167998988
  H   2.68397258023174     -2.44411694108931     -1.27443873265621
  H   2.95273298389890     -4.19284349763168     -1.35981990412955
  H   5.14644525712005     -3.32784744091606     -2.02365427995589
  H   9.00690914470900     -4.73124048390328     -2.12777639240695
  H   7.68623063102183     -4.80955477172125     -0.78282330432621
  H   6.71843224115804     -3.18124377613841      1.61447484898496
  H   6.13808119788672     -1.28885970169963     -1.08007416101696
  H   5.35631575992328      0.95025039115615     -0.80114424562844
  H   3.77504322660695      2.58598655973176      0.19745191932637
