22
Coordinates from ORCA-job 18380optt
  Br  1.13572466656037      0.00066562114983      1.01133148408204
  C   2.89623145388749      0.04237677438472      0.38476045968971
  C   3.59893644671422     -1.08827701419486      0.28308071385587
  O   3.11573324158949     -2.32662348371743      0.54450984311950
  C   3.85820417860434     -3.47998007784288      0.39555091937758
  O   3.36928962611647     -4.50294973508821      0.73727517385044
  C   5.23245312628764     -3.38415048527580     -0.24744559550052
  C   5.82808720337082     -2.02767615162640     -0.13102604303609
  C   7.06964043919643     -1.43907124932648     -0.12925561859038
  N   6.95984918543944     -0.08569231185234      0.04632227558535
  C   5.67977443384679      0.15396169126902      0.14906612464738
  N   4.95794045815792     -0.99409532764195      0.03508087825405
  C   4.96289679049295      1.41331529245711      0.35016362544791
  N   5.48158183296019      2.54366958979196      0.55419575358106
  N   3.54887373109031      1.27935360752652      0.19450778128916
  C   2.88103977414927      2.35959041672349     -0.42055043272062
  O   1.76939012827943      2.29342758563062     -0.84948450711025
  H   5.09070358612233     -3.66817409874455     -1.29557671519235
  H   5.85000847281007     -4.15277196240924      0.21136543053388
  H   8.02840816939167     -1.91570542643882     -0.24618778871001
  H   6.49768853117676      2.46339037185995      0.54202052227176
  H   3.52354452375555      3.24441637336575     -0.45870428472547
