25
Coordinates from ORCA-job 18384optt
  Br  0.98233841537816      0.01092088293394      0.93101152761225
  C   2.41308712806521      1.19507287719539      0.71196747330612
  C   2.93406106303694      1.66270867844829     -0.42796574258615
  O   2.37363413257466      1.73958372280993     -1.65535690035135
  C   0.95006162280720      1.74570350672656     -1.86808565086037
  O   0.15733559419893      2.34033187920181     -0.90154441600629
  C   -0.08808101172423      3.75457594662870     -0.83488025406476
  C   0.41704616832470      4.17558114694747      0.52015437576745
  C   -0.19648089002356      4.00004859280265      1.73047963191198
  S   0.92670324097194      3.77703447093788      3.00633276619953
  C   2.27465739955269      3.91544521290791      1.93627062765279
  C   1.81324761758113      4.21943601103239      0.67200499668390
  C   3.38831567089658      2.96361485806422      1.79037002568046
  O   2.91772288771507      1.65155811474940      1.89994509908510
  C   4.39033825495156      3.15088136759628      0.92356559675411
  C   4.29570012398846      2.30426199834414     -0.29639481741261
  N   5.09116468634154      2.27332749317073     -1.28165190478795
  H   0.61159948458825      0.71184547018235     -1.91968421538845
  H   0.85660745761589      2.23738896713033     -2.83811191187909
  H   -1.16096695730456      3.90418676465293     -0.95321053057406
  H   0.44171582080903      4.27490785226366     -1.63671565817478
  H   -1.25414428950655      3.92906274790430      1.93582942601492
  H   2.46591796850679      4.25462429061669     -0.18759674270668
  H   4.83952392629689      4.12965933215358      0.81205732190266
  H   5.95789448435724      2.76323781459842     -1.06179012377874
