26
Coordinates from ORCA-job 18389optt
  Br  1.06663562215899     -0.43724151164406     -0.38339846352730
  C   2.94894626417586     -0.35241502636049     -0.20160774738038
  C   3.64731000711494     -1.51686099431589      0.10787537833600
  O   2.96415134546122     -2.67419806056963      0.35841981958803
  C   3.22611213171454     -3.74710469797888     -0.51628210717033
  O   4.33081569977564     -4.49531797683376     -0.16000326349042
  C   5.57533828758889     -3.85936702066214     -0.40894599345969
  C   5.83548941324574     -2.68416449821967      0.52740386024045
  C   5.03417331146156     -1.45359360580169      0.20305535247472
  C   5.63592199045358     -0.21997787875697     -0.00254807376099
  C   4.85289678750745      0.89199392395490     -0.28237552675713
  C   5.45010005035680      2.25444935677401     -0.47902357185264
  C   6.53372013616881      2.35428320811773     -1.52778225588308
  O   7.05495693627347      1.42774840863993     -2.07960457655507
  N   3.52644576933972      0.81069979165302     -0.38618466565854
  C   2.05309047027827     -4.64229264992236     -0.46331879660050
  N   1.14614807331310     -5.33817601083972     -0.46847616259004
  H   3.33387410257978     -3.35198461958451     -1.53654374613677
  H   5.62171669065609     -3.53701814428954     -1.45584215316923
  H   6.32335398846828     -4.63313274799988     -0.25021896761918
  H   6.89659287141229     -2.43609476699323      0.48698193739900
  H   5.60748144819387     -3.01058955251190      1.54593110040370
  H   6.71236123536937     -0.12477947636564      0.04948971099140
  H   5.89795370034723      2.62258892419225      0.45261549161565
  H   4.65892280570128      2.96292753800064     -0.73148117038303
  H   6.84349086088314      3.39161808831748     -1.75713540905461
