22
Coordinates from ORCA-job 18382optt
  Br  1.04685360523029     -0.00693237652717      0.15461249209591
  C   2.90276504107033      0.00653869570258      0.02427917779338
  C   3.67399394104986      1.10938300900172      0.06333874152119
  O   3.28929308182525      2.38169449277132      0.18760165768586
  C   4.46049792191643      3.17461361489303      0.17572451833153
  O   4.38135364502802      4.36392305828327      0.25687105566734
  C   5.60179947385666      2.27736668345360      0.04859017009738
  C   6.95256313474775      2.77477788817423      0.02681047736735
  C   8.15054313340629      2.14480548747318     -0.01977825827570
  N   9.12908100080212      3.12350742125981     -0.00922595837789
  C   8.57202862811287      4.39110156299487      0.04566244103073
  O   9.14801465462988      5.45660963572777      0.06886188097396
  N   7.21891981085971      4.13995916387501      0.06501346770743
  C   5.09673605261373      1.00721428624681     -0.02970718032076
  C   5.61158787483663     -0.31788166009069     -0.17940879148679
  N   4.84477141738045     -1.36525043973493     -0.22253246274395
  N   3.53501592514589     -1.19981133742646     -0.11842245536568
  H   8.38743081621473      1.09739356429955     -0.04789460039981
  H   10.12303024171970      2.98308668397736     -0.03098948479324
  H   6.50917274901163      4.85514235655988      0.11449740567323
  H   6.66903133960438     -0.51961679408043     -0.27127206470427
  H   2.98951651093732     -2.04662499683433     -0.16363222947720
