26
Coordinates from ORCA-job 18397optt
  Br  1.02885277704989     -0.20001156559769      0.15176241102209
  C   2.89335017583563     -0.06065345173845      0.13778313449245
  C   3.64683285114286     -1.15995329710499      0.32153879196630
  O   3.15655210453753     -2.39826437059250      0.58721006953483
  C   3.45064340883980     -3.35831585953016     -0.39747259725410
  O   2.93678131857126     -3.33155761319158     -1.46098465275156
  C   4.53228803907689     -4.27511191533165      0.08403500804508
  C   5.85715974681268     -3.49905347219063      0.00280880853538
  C   5.87601153799794     -2.19416788530692      0.79906333941291
  N   5.02381009786316     -1.12068926196280      0.28774369210267
  C   5.66446429341854      0.09143768058353      0.11889843490938
  C   7.14256376683126     -0.12587487313758      0.22644334151482
  C   7.26680760850827     -1.55359045938456      0.72929303438396
  O   8.27574193347372     -2.12638631652385      1.01217249379966
  C   4.97637932805014      1.22604501988618     -0.06956597442207
  C   3.51273426413410      1.25572604364648     -0.07903598708323
  N   2.78668798661167      2.29209181540478     -0.25372845210893
  H   4.56852586726569     -5.15784558072545     -0.54961320499681
  H   4.32801392883086     -4.56332946649445      1.11586594970788
  H   6.08383337028233     -3.27829039646884     -1.04315272937459
  H   6.66507403083906     -4.11867164754122      0.39381091625498
  H   5.63738990030452     -2.40012345529955      1.84956160422560
  H   7.63310807668265      0.56615304761038      0.91021194479834
  H   7.64534140476260     -0.04997856346560     -0.74090215899344
  H   5.50927660660596      2.15695266793886     -0.21146136000592
  H   3.36677557567088      3.11646317651830     -0.39628585771567
