20
Coordinates from ORCA-job 18399optt
  Br  1.04756672749167      0.15531413311838     -0.23951627114459
  C   2.89000839766304      0.00433654012500      0.00252350359153
  C   3.55487357520542     -1.15154538499670     -0.12454565408053
  O   3.13175272049753     -2.38517584088489     -0.42639459976966
  C   4.26415481460434     -3.23296788604870     -0.42419495802235
  O   4.15803160134910     -4.39243316121201     -0.66060423538114
  C   5.44095916961445     -2.42479224850464     -0.09996283541961
  C   6.80814432220549     -3.01013913751436     -0.02181279221541
  C   7.55605595003758     -2.62561022844707      1.20702855160355
  N   7.09441028451667     -1.96953460254474      2.21769812897254
  O   8.13723198252177     -1.86873702297728      3.05987977719747
  N   9.21589135059109     -2.48374530546943      2.51260730797118
  N   8.88953116448765     -2.94138029197382      1.40093037385725
  C   4.97801486606187     -1.17293680903872      0.07628837309022
  O   5.61414027999608     -0.03287994316913      0.38291606357288
  C   4.84413146102641      1.08362661801212      0.49868149137473
  N   3.59300238040846      1.14985869295490      0.33194715018535
  H   7.41624098094296     -2.72518353792453     -0.88478968478294
  H   6.71938991361984     -4.09865605256763     -0.05797952101305
  H   5.44346805715852      1.94458146906326      0.75929983041256
