25
Coordinates from ORCA-job 18395optt
  Br  1.30255791531455     -0.03183488151572      0.90902863571199
  C   3.13035101841571     -0.06158532859610      0.44051122542530
  C   3.73435484554877     -1.27054752178242      0.10145184009100
  O   2.91992149503377     -2.35403177100939      0.02789997619772
  C   3.29904719494191     -3.67377922771098     -0.02436800527966
  O   2.50371460058080     -4.44914840995465     -0.45005272692108
  C   4.66264800627365     -4.06643717030384      0.48286254466321
  C   5.75627625857558     -3.76113546429738     -0.55205809517996
  C   6.04734876670195     -2.29730810627988     -0.55963117080287
  C   7.23666846904725     -1.66047986556729     -0.75715473162407
  N   7.08270521482207     -0.30804989296904     -0.57133443944919
  C   5.79486648031446     -0.04828926117856     -0.23127179122596
  C   5.09946480382752     -1.27460992204498     -0.22190593041982
  C   5.18430262920649      1.17219400725622      0.08356942849743
  C   5.93777571515868      2.42261844281162      0.06494609347697
  O   7.11554224671861      2.49074476106513     -0.20970167415392
  C   3.84322334099053      1.13564287608154      0.42687474618069
  H   4.60016510023526     -5.13527089003574      0.67173550439245
  H   4.88324901799442     -3.54762949685338      1.41741321279800
  H   5.42826074462020     -4.11854018253830     -1.53168797695331
  H   6.65645357557781     -4.32005324849181     -0.29584526148192
  H   8.20059191977583     -2.07576969015983     -1.00222633033420
  H   7.78303907003653      0.41521103993321     -0.63125740025543
  H   5.36525222966027      3.33113892438477      0.32308628865655
  H   3.33021934062730      2.05395027975678      0.68411603799010
