27
Coordinates from ORCA-job 18407optt
  Br  0.70831097645025     -0.28642843323602      0.11758818475209
  C   2.57411500521139     -0.12155688014958      0.24806386411514
  C   3.36054666897545     -1.25637062523690      0.38235412050114
  O   2.78472426230324     -2.48828196387264      0.47838663606690
  C   3.06852430872104     -3.38907958858004     -0.56157627668339
  O   4.24854448790118     -4.09150404991898     -0.38295994030969
  C   5.46465730668428     -3.36517996678149     -0.50683632979659
  C   5.64680003758387     -2.74731167927296     -1.90044159065883
  C   5.40468845300930     -3.70657345334803     -2.97139108988146
  C   5.18903917225088     -4.50799650896484     -3.83455753739561
  C   5.62582863999606     -2.32287067375781      0.60147316684458
  C   4.74949690464690     -1.10767001124227      0.45288551106486
  N   5.33659770616038      0.08258939942822      0.38556723359389
  C   4.57051504832905      1.16416014437108      0.26681861946851
  C   3.18846863052536      1.12012217477528      0.19545782468469
  C   1.96398229740938     -4.44555193788493     -0.59813431251125
  O   0.84786508811080     -4.24409062685822     -0.23447222245584
  H   3.06357678324217     -2.84689151198072     -1.51949112610711
  H   6.22823528445325     -4.13066313356232     -0.37013548614983
  H   6.66827164134600     -2.36497564245798     -1.96219968513759
  H   4.99401089373058     -1.88051112988121     -2.03055082288466
  H   5.00476653154675     -5.21983712373089     -4.60351326938262
  H   6.65898410663355     -1.97741846162670      0.62305705986555
  H   5.40839174792234     -2.81736468819581      1.55155905380455
  H   5.08696587344602      2.11609939409109      0.22338683518346
  H   2.60351659272659      2.02272364761593      0.09288005593733
  H   2.30157555068387     -5.41256666974125     -1.01121847652821
