22
Coordinates from ORCA-job 18404optt
  Br  1.25991887782081      0.22149055131209      1.00887269357626
  C   3.03348687455178      0.02439076625427      0.48464305679359
  C   3.56440555443421     -1.15577897342526      0.16724806752378
  O   2.96318901228559     -2.35803589300043      0.17532784230813
  C   3.65870923480762     -3.33956314209005      0.94554791876352
  O   4.48077766228594     -4.15493040767916      0.17482456792575
  C   5.32854263754275     -3.55582996021617     -0.79640345423818
  C   4.68544840936932     -3.55869183467718     -2.11935952696590
  C   4.18312238555497     -3.53378114235514     -3.20390492060998
  C   5.77879738375514     -2.15964020448350     -0.47364472492496
  N   6.99438348728759     -1.68475300325898     -0.56582288569534
  N   6.94885801579006     -0.34698906593196     -0.32098384131341
  C   5.70372917150640     -0.04262290044183     -0.08122963618080
  N   4.92271446751734     -1.14907763495184     -0.16880600441579
  C   5.09156054298565      1.24942347257295      0.24169967961922
  N   5.64893129751592      2.36262314256439      0.33544011770285
  O   3.72223720169711      1.19465352017100      0.43547867919893
  H   2.90578892341105     -3.99255893111542      1.37627749340022
  H   4.22373230992597     -2.82713841658173      1.73139523717250
  H   6.22978479992811     -4.16836845624666     -0.83533143217607
  H   3.73133809828891     -3.52159441909158     -4.16748357114460
  H   6.64654365173767      2.26877293267219      0.15121464368030
