27
Coordinates from ORCA-job 18408optt
  Br  1.06046010358933     -0.18119024984760      0.15714588279065
  C   2.92685632634818     -0.16965914177757      0.25264382224277
  C   3.66095079297792     -1.27946743785291      0.31589811166644
  O   3.12624396429948     -2.51418454417285      0.40901583815401
  C   3.34790673317313     -3.37136411815715     -0.71275002245091
  O   4.47501839449622     -4.15409966385798     -0.55112169174344
  C   5.72136268775995     -3.48203581150984     -0.56199831541630
  C   6.06615448091259     -2.88743314714543     -1.93433156135152
  C   5.88517150046624     -3.84891892191168     -3.01550302002353
  C   5.72754195279465     -4.64656728651264     -3.89377804127555
  C   5.79527833378147     -2.43760504702542      0.55684557446959
  N   5.05984963561100     -1.20839062984235      0.27647609034727
  C   5.72924855109507     -0.02973412875590     -0.05668113896256
  N   6.95056808751351      0.11101790137055     -0.35475530686504
  C   4.89941806214834      1.25136348252760      0.01168632647191
  O   5.39401262115592      2.34234680066249     -0.06826350222558
  N   3.55348014849219      1.06939697364910      0.19674172470673
  H   3.38881137762764     -2.75725666302389     -1.61950007624026
  H   2.49942752696967     -4.04788622267149     -0.74286865083102
  H   6.44278272918702     -4.26716264389046     -0.33215528756434
  H   7.10764008167935     -2.55659371832521     -1.91235605173823
  H   5.46859836580314     -1.99427854142262     -2.13360543115493
  H   5.58981884796634     -5.35702986660680     -4.67364954271048
  H   6.83127113471336     -2.17289384517665      0.75627027825618
  H   5.38811144698682     -2.88533322016322      1.46332750039478
  H   7.46473364441427     -0.76356433627347     -0.39651183123009
  H   2.99828246803706      1.91052402771346      0.25977832228344
