25
Coordinates from ORCA-job 18402optt
  Br  0.93017020669936      0.18681086207610     -0.81697602344556
  C   2.80538531571873      0.30484127519704     -0.65779021508027
  C   3.54490478396563     -0.87296963148498     -0.50336324206602
  O   2.93594865230986     -2.07897584936066     -0.52847159407884
  C   2.41048768708709     -2.55491159832270      0.71667881838328
  O   3.16205264980056     -3.59645526140578      1.20943613761554
  C   4.51510307273655     -3.26208912038137      1.50196384081243
  C   5.39087984828066     -3.24254368288285      0.22381812166149
  C   5.90150179830674     -1.86238552619909     -0.17787207473330
  C   4.92374730812397     -0.73011499263560     -0.35967500412115
  N   5.47484335946069      0.48872770729755     -0.38881786307768
  C   4.67397574729037      1.52184928521532     -0.55793692331432
  N   3.34968473175986      1.49569295957534     -0.69134788014894
  C   5.29419668688847      2.83412046353283     -0.59185896876628
  N   5.78256420108936      3.86923749887173     -0.61746449683378
  C   5.00701559279741     -4.23858904161528      2.47411710444809
  C   5.44542769516564     -5.03261798925699      3.25421362969840
  H   1.41546777061878     -2.94441662256462      0.52111376975174
  H   2.37311231749037     -1.71186042591807      1.41816063526832
  H   4.53472907524219     -2.27134703106795      1.98053495233629
  H   4.81090858118072     -3.70345044901029     -0.57247058531786
  H   6.26428875809200     -3.87126369733994      0.39057897002459
  H   6.45729775884132     -1.94582582977770     -1.11619509915254
  H   6.62784946478765     -1.50347370453382      0.55481183630176
  H   5.82445693626592     -5.74098959800818      3.95181215383461
