23
Coordinates from ORCA-job 18413optt
  Br  2.34708042906271     -0.71909318565317     -1.95652247995686
  C   2.62947032153791      0.28574625590283     -0.40142841952966
  C   2.12690634093918      1.53387105225856     -0.25742663700501
  O   1.33842696947271      2.12609445825707     -1.18614027308073
  C   0.00107323487041      1.67626738446510     -1.37456613304696
  O   -0.39661187447520      0.64487212715903     -0.95283294701118
  C   -0.64983480090123      2.89546545229220     -1.88817664795596
  C   -1.22019446731284      3.50398728295264     -0.82538460045764
  C   -0.48354654445194      4.68439579756541     -0.39300856865373
  C   0.19599795943689      4.42792414568254      0.73587195697921
  C   1.67319107356479      4.63340593770161      0.68646449323488
  O   2.21963306066678      5.58724087560151      0.19756587121769
  N   2.35776470754677      3.55861432064835      1.23167006643427
  C   2.52945686202364      2.33585275647414      0.91616224908058
  N   3.27072322870579      1.58484961738866      1.81667228191684
  N   3.72214174917154      0.34605747394051      1.70608216051062
  C   3.43171763038212     -0.29753014579952      0.62950929024498
  H   -0.03359483962289      3.49157115405306     -2.54928971883815
  H   -1.70351256022147      2.90480057464995     -0.06049739280010
  H   -0.07313014215968      5.36655708895772     -1.12870601451476
  H   -0.15610310310263      3.66567514987917      1.42226752962477
  H   3.56252936616392      2.07756356368304      2.64958654214109
  H   3.81141539870269     -1.30418913806045      0.53412739146582
