29
Coordinates from ORCA-job 18414optt
  Br  2.23248772671380     -1.31813181400172      2.58888986238020
  C   2.61810281453876     -0.22114730247686      1.11453668050576
  C   2.76108660149683      1.15167974113450      1.28849189322331
  O   2.46087521748140      1.71587532847600      2.49950208055155
  C   1.44823801389517      2.64994855433092      2.60754167361723
  O   1.09847064351934      2.93096571710732      3.70878180853812
  C   0.87818348195355      3.37220907538503      1.38147848048489
  C   0.27426929021261      2.59597149606804      0.18814814225284
  C   0.47839072435531      3.28620327642328     -1.17854322193279
  C   1.89028421736277      3.58419118965657     -1.72562933535617
  N   2.73896453415414      2.43913471150729     -2.07717331330111
  C   2.92462667624094      1.49730137334307     -1.07013675871632
  C   3.09551701153414      1.96376362288263      0.22916247472618
  C   2.80912935997414      0.12613625528310     -1.27158006304887
  C   2.71465332970123     -0.74355370813278     -0.18173108682561
  C   2.61031857332869     -2.14842698306302     -0.42144410049087
  C   2.52868892974202     -3.32446867594927     -0.63615110874809
  H   1.66213041081699      4.05035706639387      1.03900953037916
  H   0.11360240548355      4.01147053313904      1.81818076599301
  H   -0.80407178406952      2.53921007291954      0.34714419522583
  H   0.61154043997678      1.56315405807659      0.15023841259383
  H   -0.05524111333422      2.69357019126141     -1.92739206769125
  H   -0.03110809637998      4.25503813526568     -1.14142507380021
  H   1.77013455353008      4.16826935682839     -2.63824188112514
  H   2.43896476005119      4.23325340738496     -1.04152280549196
  H   2.48010531158914      2.01982700196644     -2.95850589662427
  H   3.27694944474244      3.00832230335934      0.41569506343713
  H   2.72824487090100     -0.28105577055293     -2.27123649140854
  H   2.45546165048769     -4.37106821401647     -0.81208785934781
