22
Coordinates from ORCA-job 18410optt
  Br  1.18232796956593     -0.45780326263659     -0.89200710993513
  C   2.95430859605207     -0.17732636442451     -0.35973116008132
  C   3.76762356963892     -1.21979527702008     -0.13521913596677
  O   3.41488299700103     -2.53445057625015     -0.26393862185190
  C   4.54404677586155     -3.21396447920646      0.06434813889741
  O   4.38867570893495     -4.51455632544758     -0.00753849294718
  C   5.53838062967578     -5.28623779316569      0.40280339724069
  C   5.64048412812329     -5.32093319082472      1.86426320035785
  C   5.73369055290891     -5.35008647438250      3.05481876594840
  C   5.38849431653046     -6.62295292939435     -0.16926698581962
  C   5.29142873079291     -7.71742494893793     -0.63722237289137
  N   5.57912657599984     -2.54019469431588      0.38247819772452
  C   5.15104050879990     -1.20726414484650      0.28045012766002
  C   5.82863645945301     -0.07903035111954      0.51897002536439
  S   5.09672801090048      1.47204741171235      0.34121054350183
  C   3.41276375062566      1.20291492732628     -0.19975393900473
  N   2.65195836371546      2.18996047995957     -0.42763227991007
  H   6.43072319311790     -4.80428275027332     -0.00551033211913
  H   5.81382688011533     -5.37656552164367      4.11574353253606
  H   5.19512716937806     -8.69235347727885     -1.05329267337904
  H   6.86215432743915     -0.07377193468574      0.83522930743378
  H   3.10357078536936      3.08907167685588     -0.27720213275870
