23
Coordinates from ORCA-job 18412optt
  Br  1.52424176474012     -1.53500951524024     -1.10281593435190
  C   2.10514354265817     -0.01500557907780     -0.16968498140657
  C   2.68380740840356      1.00915130179847     -0.82952531149311
  O   2.69980244715005      1.10826418697594     -2.19107968434670
  C   1.81604883840724      2.00331067301723     -2.77219183167235
  O   1.76139925890983      2.04555547497288     -3.95725506450918
  C   1.04405875198545      2.95205933748478     -1.89854830459570
  C   0.42048742948448      2.70575070959646     -0.74259017514637
  C   -0.07244102123814      3.78243077898265      0.10858262303242
  C   -0.17331471601446      3.81524088145258      1.44815589523184
  C   0.10095409096100      2.85241983351868      2.54042048303445
  N   0.87352268626497      1.84645749535264      2.66795696326110
  C   1.70278457147763      1.41599733101890      1.66070446733581
  O   2.50844391619705      2.35247880280032      1.13294361619100
  C   3.13531040811208      2.18672570188469     -0.09173413688974
  O   3.88034870106933      3.03067755083391     -0.47872669032160
  C   1.66803201327849      0.15102111084425      1.17964696637545
  H   1.07029844529359      3.96112501179967     -2.29548880349449
  H   0.33598972118805      1.69993464002615     -0.35489863760713
  H   -0.33080615121640      4.70167999516127     -0.40851673774861
  H   -0.56343394450562      4.74234535868897      1.85586428435417
  H   -0.47597271374403      3.08207029450378      3.43566767114881
  H   1.08729455113754     -0.60468137639621      1.68211332361841
