24
Coordinates from ORCA-job 18415optt
  Br  0.86058544548434      0.33740260568760     -0.72585592491303
  C   2.72538957127018      0.33769022002690     -0.56404085539896
  C   3.42947748419181     -0.81301511982806     -0.42797554446045
  O   2.84504086465116     -2.03740119962295     -0.54952727571602
  C   2.30107050864497     -2.62990495684995      0.61459259641396
  O   3.16824597920333     -3.56777445737735      1.15334329131929
  C   4.42497593692574     -3.01832839005769      1.50159109541352
  C   4.99314505983896     -3.81543290116975      2.58749222990583
  C   5.47421454642014     -4.45959712743603      3.47209184008779
  C   5.39981182131188     -3.00631048656360      0.30472273812041
  N   6.06865929334903     -3.99886229313751     -0.08450251153469
  N   5.65622490873005     -1.76659491962228     -0.28687491917584
  C   4.86302965901811     -0.65794877160171     -0.38658672176029
  N   5.47392547928199      0.48616363958557     -0.51927370394277
  C   4.76894833357174      1.65067265730805     -0.65741573611666
  O   5.24343140673689      2.75103268880268     -0.78145210001640
  N   3.35544018309376      1.52494185352005     -0.62375626541231
  H   1.40563668468788     -3.16967007865176      0.31970305536071
  H   2.07360815987550     -1.84224727704584      1.34339565631637
  H   4.29238369212312     -1.99021952712611      1.86387728038077
  H   5.90237110620560     -5.02998301134656      4.26219021319254
  H   5.89519141540691     -4.81314382217447      0.50196375785234
  H   6.59703835789162     -1.64589940162725     -0.63832058522793
  H   2.83315410208521      2.38443007630805     -0.71638161068818
