23
Coordinates from ORCA-job 18424optt
  Br  2.02122157160477     -0.02005770252447      0.57310235214040
  C   3.79410587584272     -0.08383049314489      0.00068716533950
  C   4.12986770838438     -0.19077560703681     -1.28736280370436
  O   3.22374749958620     -0.07056938781383     -2.27476278882177
  C   2.94893089095128     -1.26431533527749     -3.00536720069089
  O   4.04578933246080     -1.70991574368210     -3.71418489183271
  C   4.58424691410266     -0.76587331791296     -4.61261455305562
  C   5.68672596715263      0.07260594821014     -4.04071405050802
  C   6.10097100237365      0.18801580685345     -2.78825046573240
  N   5.47092176556320     -0.42325430392938     -1.66122600428975
  S   6.34720881138112     -1.28255609789467     -0.56600888978718
  O   5.74906130336451     -2.55683932995118     -0.35898992085694
  O   7.72748312604042     -1.13136508561959     -0.88791628979437
  C   5.98821260689639     -0.28532002345299      0.89073235228334
  N   6.83574156454671      0.12098043069598      1.70643002706396
  O   4.67224976043055     -0.00973762069120      1.04772244681004
  H   2.12311385657657     -0.98123340606725     -3.66268335352672
  H   2.66547614683796     -2.06365173632769     -2.32030838916168
  H   3.79307845456616     -0.12109023589295     -5.01684849255836
  H   4.99611117848467     -1.33545186453230     -5.44826249023462
  H   6.24651706861714      0.63886308631851     -4.77746446455453
  H   6.97643922563920      0.77426615135895     -2.54227529189476
  H   7.76877836859627     -0.20389413168528      1.45656599736744
