27
Coordinates from ORCA-job 18423optt
  Br  1.05959859907936     -0.39695887386172     -0.01724445359017
  C   2.93356499825241     -0.28158839560902     -0.04897687105924
  C   3.70124839883123     -1.37210118056501      0.18124569968025
  O   3.20221332337212     -2.60132663156494      0.46209894329873
  C   3.28056800100041     -3.51942235851069     -0.61231970929690
  O   2.47815417952268     -3.49812051471119     -1.47749746380242
  C   4.46545502546553     -4.42088105585743     -0.45601462520305
  C   5.77458287034475     -3.61693976563109     -0.49600078436762
  C   5.85340156686752     -2.48834454343333      0.52788218592039
  N   5.06921653620862     -1.30223965835059      0.15737250003593
  C   5.76393092406276     -0.12331159034729     -0.14904908027808
  O   6.98365757588616     -0.10506986713730     -0.18646918451112
  C   4.92866527531961      1.03986745146099     -0.39410164116847
  C   5.69655666746033      2.29765912292167     -0.70284278528061
  C   4.86215864513764      3.46456530302846     -0.95870692592763
  C   4.17336802575722      4.42152458086251     -1.16712478809114
  C   3.58028065930273      0.95077318799741     -0.33183948898253
  H   4.43697973415163     -5.17127084981086     -1.24247840217790
  H   4.37573312455495     -4.91418166144274      0.51501467315324
  H   5.93456027996304     -3.20427992401670     -1.49431123041883
  H   6.59578039252728     -4.30770920434756     -0.30108339167136
  H   6.87641836385426     -2.13524043546324      0.61304468511484
  H   5.51044503213306     -2.83214851863053      1.50490988160225
  H   6.34591596550309      2.10789399467684     -1.56197305687933
  H   6.37932691719738      2.50357332962933      0.12650605989301
  H   3.57294048978153      5.27897998154580     -1.35617615215754
  H   2.97427842846263      1.82929807716823     -0.51786459383469
