22
Coordinates from ORCA-job 18422optt
  Br  4.91000626478596      0.81416607931462     -3.68064958858166
  C   5.39674130875373     -0.48053784522758     -2.42518643832095
  C   5.73779757602208     -1.73423401230244     -2.74050970288009
  O   6.02468344296791     -2.61952988109972     -1.71499081774020
  C   6.84554712652968     -2.15689806175343     -0.71800356791549
  O   7.30532814676498     -2.90171375610855      0.08210067437911
  C   7.00093657933274     -0.67889538138862     -0.74835355429502
  C   8.09873075562344     -0.05090259566344     -1.20368562889262
  C   9.04006789857645     -0.57052700686465     -2.19516539046368
  C   8.79536465419252     -1.66789578938730     -2.92617277545306
  S   9.35575645594486     -1.80601680461717     -4.58780949777127
  C   7.80362701183533     -1.44247101666430     -5.41240268942396
  N   6.61129637243849     -1.62011988712554     -5.06869931239817
  C   6.07855195376602     -2.40208547823237     -4.05221168351276
  O   5.92575808675420     -3.58322286075714     -4.18793725977154
  C   5.69308612088022      0.00446872059843     -1.02538014523459
  N   5.04559783098930      0.90330610802236     -0.43888060272595
  H   8.07649487580416      1.03586501253333     -1.18656707259251
  H   9.75640677915328      0.14869115426686     -2.57561684827737
  H   8.13794241052455     -2.46177888574602     -2.60323251861066
  H   8.00334167924737     -0.97408135150704     -6.37577284342737
  H   5.45493666911264      1.12341353970971      0.46912726390983
