25
Coordinates from ORCA-job 18431optt
  Br  3.60680065680352     -1.40644397415963     -1.28979709390013
  C   3.02449747797241     -0.08455049139551     -0.11090031042525
  C   2.37355279103222      1.03870259724595     -0.47935745539214
  O   2.05635168996093      1.28142925052227     -1.77618591039204
  C   1.06505905471080      2.20177799741033     -2.11588305832550
  O   0.24684145073466      1.84486736472627     -2.89867126544706
  C   1.15204617562189      3.62452604784598     -1.60371855832655
  C   -0.12997259382086      4.07453154978401     -0.88657859208133
  C   -0.28703028798620      3.67503237936209      0.58301473878734
  N   0.66242398659052      4.40160367699877      1.40126959276501
  C   1.45882922278549      3.93909795531250      2.23201946431469
  O   1.69813985386510      2.60638430742743      2.61148578831566
  C   2.13393966400652      1.72740196922665      1.70322253693832
  N   1.96078455353100      1.92142735590413      0.45544983824739
  C   2.83849408161179      0.54555874611247      2.25467272296147
  O   3.04725986315582      0.31933489239573      3.42152933486884
  N   3.25638929898140     -0.28330426226325      1.23224067509057
  H   1.24216968300426      4.21922088366115     -2.51597089184043
  H   2.03596287654117      3.79251031810267     -0.99775481928666
  H   -0.98648151969748      3.69613356792146     -1.44703540257046
  H   -0.17106707580225      5.16377851035374     -0.92676603131646
  H   -0.25528649045761      2.59444975110519      0.72177877034954
  H   -1.27096553849455      4.02398716625055      0.90474403307830
  H   2.08150446157122      4.58556029329177      2.84265360694680
  H   3.76375666377817     -1.10901785314282      1.52253828664007
