24
Coordinates from ORCA-job 18437optt
  Br  1.07203475354927      0.15788800848269      0.32322635413275
  C   2.90507814131223     -0.05041538640335      0.10582282940362
  C   3.50506270040482     -1.24887806802775      0.00190620721987
  O   2.82541684671037     -2.42280488832368      0.06589586401397
  C   3.57324639322015     -3.50590805372018     -0.44652270867996
  O   4.81778264585148     -3.59872157516526      0.16874342313460
  C   5.68229592747279     -2.52674801561972     -0.14543005646652
  C   6.38129541173906     -2.73482566150398     -1.50933905948548
  C   7.38567556539280     -1.62002858323766     -1.82304329108143
  O   7.37709513329697     -1.02301069473322     -2.85623799466598
  C   7.12043211223990     -3.99359245343037     -1.49647637979226
  C   7.77649428205948     -4.99446577937467     -1.47493431773150
  C   4.94012585713348     -1.21052605251615     -0.09683356984168
  N   5.62522803197424     -0.12635628715907     -0.13814840201436
  C   4.97504281493291      1.09958421040526     -0.10112016507930
  N   5.49290765439036      2.23510357771374     -0.20692811017149
  O   3.58838603912550      1.08876119673187      0.09042069895860
  H   3.67435698191410     -3.38561872272640     -1.53182272571657
  H   3.01766964238574     -4.40524564024943     -0.20397801272600
  H   6.44477831229030     -2.51073322963268      0.63468500178693
  H   5.65014406277989     -2.73135606659716     -2.32051559061381
  H   8.15208384994566     -1.44819810854309     -1.04725232383589
  H   8.35138370073923     -5.89008149681457     -1.46023440445374
  H   6.49598313913916      2.13517777044486     -0.33188326629436
