21
Coordinates from ORCA-job 18436optt
  Br  1.15645868363987      1.38997034832944      1.41016280758052
  C   2.74147273439092      0.67962789778065      0.71206524117673
  C   2.90729619975272     -0.66338981811316      0.59468433101362
  O   2.00701666433422     -1.61246200788447      0.97165183108264
  C   1.46534393548454     -2.30560142168026     -0.10725969739188
  O   0.91397293102757     -1.75006430484052     -0.99764067199621
  C   1.68199562353366     -3.76476452333979      0.00280232131760
  C   2.87170569057063     -4.35002397314591      0.10539674348543
  C   4.28200028323188     -3.82490778734825      0.12901935108785
  O   5.14551581944646     -4.64952027031967      0.31020398828080
  C   4.68906897576260     -2.42179351867025     -0.14426636676175
  C   4.11698101572108     -1.17238147283637      0.07263118035780
  N   5.07765278433199     -0.28833451090679     -0.31092360407568
  C   4.93916332403283      1.06689658641014     -0.20707624416368
  C   3.78805202574670      1.55985899029227      0.30361936482351
  N   6.17563307719507     -0.94282375123924     -0.75161191934852
  N   5.93634381920051     -2.19674583722431     -0.63943642795280
  H   0.79273420727909     -4.37419676503198     -0.10148570498294
  H   2.89930746322741     -5.43379695804956      0.12751104218910
  H   5.78225074868991      1.65397737887696     -0.53758622126250
  H   3.65503399340031      2.62647571894109      0.40053865554037
