28
Coordinates from ORCA-job 18441optt
  Br  1.00895150073260     -0.27649030996458     -2.10063754796235
  C   1.91376753882292      0.46812442362583     -0.62745164007636
  C   2.89426830313890      1.37275169793478     -0.83748990423970
  O   3.11525715847078      1.91020541915910     -2.07428184201435
  C   2.39999344501118      3.05773015624048     -2.36701570111206
  O   2.36211193403254      3.42050018680225     -3.49753702494086
  C   1.74022769418501      3.82247518274851     -1.22103225623132
  C   0.33821717257187      3.34584109716664     -0.80134516170525
  C   -0.11434196036754      3.95672113432706      0.52299405688650
  O   0.59778028118457      3.46705648113614      1.66425140174239
  C   0.03688489871417      2.38793489639388      2.34780847087471
  O   1.05948263031176      1.45993688163844      2.72417918432436
  C   1.78304505295087      1.10444818003098      1.63232105133000
  N   2.94811034528278      1.78767304932575      1.49767502006963
  C   3.63326160105585      1.94671569860760      0.28678884802258
  N   4.69813905851641      2.62114365083434      0.12487684179965
  C   1.33651546947938      0.27237556408017      0.66700966028522
  H   1.66068355837636      4.84360629309662     -1.59250978738239
  H   2.40544512631703      3.84333764236307     -0.36025798355622
  H   0.27391797945985      2.26226614928120     -0.72177270308720
  H   -0.38156209887811      3.63878207285204     -1.56900757130153
  H   -1.18561855545752      3.78716766694560      0.66157431581341
  H   0.05016076963450      5.03526124656711      0.52044221802365
  H   -0.40038921736235      2.70729294324050      3.29383438688718
  H   -0.69819053318499      1.87405183757905      1.72060268273003
  H   3.16007701554747      2.44357467988286      2.23673315361907
  H   5.05334996100944      3.00283903280592      0.99857045419013
  H   0.43445387044424     -0.30232295470141      0.79867737701110
