22
Coordinates from ORCA-job 18458optt
  Br  1.74917031463329     -0.02073681035853     -0.24784689903765
  C   3.13684620889054      1.20993943852757     -0.40495271932861
  C   3.03428670604269      2.48707041973234      0.03572038794776
  O   1.86781927067002      2.85310775272087      0.62804835216667
  C   2.01731262802533      3.00779081936057      2.05457836216085
  O   2.22695914505757      2.07320563960532      2.74722763427356
  C   2.05336820161356      4.44872360966907      2.23134151828235
  C   3.27290598416835      4.93662911630989      2.49426351669788
  N   3.66129218862107      6.08416735077275      1.82462884675629
  C   3.95780693431522      5.85491588982110      0.59038261589254
  N   4.29825030458442      4.67403293714103      0.01847267977186
  C   4.17342039914703      3.41656569607082     -0.15889518892503
  C   5.34052696239835      2.73088858943152     -0.71104494722593
  C   5.30840817481632      1.46146002106886     -1.11066755960785
  O   4.20685298189887      0.68838663853341     -1.01055303368687
  C   4.11232926400410      6.98351797590657     -0.30310755342475
  C   4.20727098149572      7.89696382915254     -1.06993531778899
  H   1.41804613574598      5.02090208561814      1.56856770044411
  H   4.00429253514019      4.38622661896629      3.08333410926581
  H   6.24438564474481      3.30918836370609     -0.82906177301815
  H   6.13177593638058      0.92534508307450     -1.55693629161446
  H   4.29067309760584      8.71470893516911     -1.74556444000143
