27
Coordinates from ORCA-job 18462optt
  Br  2.04819334820141      0.57375376873939     -3.37060535481408
  C   2.25778586696195      0.81872793893882     -1.51959058899264
  C   3.16191925353297      1.71678887595745     -1.05320562922781
  O   3.73382350917211      2.65336537656412     -1.84002344784394
  C   3.22700072355663      3.96177760594251     -1.54197094469094
  O   1.83702164080589      3.93471017715902     -1.38830997267429
  C   1.32958156188927      4.35459035647593     -0.12770042952784
  C   -0.12831306978217      3.92452747196073      0.00830964651514
  N   -0.32569397104350      2.50100781683570      0.19236941404700
  C   -0.24691129939670      1.86008563033515      1.40141170317536
  N   -0.42803833606806      2.31252013123153      2.57429907641698
  N   0.15998310734749      0.49121000229838      1.26796565575804
  C   1.36325769286820      0.48825559867917      0.52091698048723
  N   2.43121263789189      1.08943656428139      1.10930101206014
  C   3.38716819125914      1.80352311747104      0.38144913056043
  O   4.21937803350536      2.48571179425173      0.93686856408527
  N   1.32937765338305      0.21257226380923     -0.73405699381622
  H   3.49394623240543      4.55642276812877     -2.41243151041722
  H   3.71005668232620      4.33340293441263     -0.63526714453799
  H   1.92400616016514      3.93452109119446      0.69098554564788
  H   1.38069173337553      5.44641460787301     -0.05675769182170
  H   -0.67313662367021      4.23164437763801     -0.88483769442687
  H   -0.56808909809105      4.46309562691861      0.84789855754772
  H   -0.23765437803517      1.91838646606946     -0.62684107380835
  H   -0.79721885980301      3.25807820660277      2.57553344163336
  H   0.21928429730241      0.08325551226185      2.19463100535055
  H   2.38636730993976      1.31521391796911      2.09765874331478
