24
Coordinates from ORCA-job 18473optt
  Br  0.65093541805016     -0.27820783171121     -0.87286371579479
  C   2.50666832674602     -0.03569581484797     -0.73571555881623
  C   3.33975903515183     -1.09732679040963     -0.77337675228333
  O   2.82254475096127     -2.34393190785329     -1.02136107953931
  C   2.54694754949397     -3.22104331730042      0.00704616384322
  O   1.94685063107328     -4.21042893567093     -0.24599646195224
  C   3.06006083499981     -2.83788044728428      1.37807468491245
  C   4.61910932252661     -2.91264958712168      1.41357604272586
  O   5.11713382643408     -3.28139961134900      0.13744003512429
  C   5.59992948140712     -2.23103792317703     -0.67119602694819
  C   4.76861916527505     -0.96649519833025     -0.63253247267247
  C   5.40066974173827      0.21687057274099     -0.47637681918698
  C   4.78516961429772      1.53061386596089     -0.45898428673449
  O   5.37493839366763      2.57328178726226     -0.36029346228095
  S   2.99127317406217      1.60550493694440     -0.56174141059264
  C   5.07773501001904     -3.89415346263291      2.39686531175776
  C   5.43943335788182     -4.68406192212361      3.21868339246137
  H   2.62663375259762     -3.54318166815744      2.08003027174522
  H   2.72087989986384     -1.83335340880220      1.63370952916013
  H   5.02040299215285     -1.93677794875512      1.70269125462958
  H   5.60291970263779     -2.62709327342822     -1.68814675608503
  H   6.62764398062863     -1.98020256514019     -0.39292230992744
  H   6.47781390204491      0.24217877985337     -0.35650362050561
  H   5.76692813628839     -5.39352832866651      3.94089404695982
