21
Coordinates from ORCA-job 18471optt
  Br  1.20970241817403     -0.12534917964709      0.04197417958187
  C   3.06920702781564     -0.04747998470136      0.05960382051753
  C   3.78219958436791      1.10682727036589      0.06368127043708
  O   3.30033321745371      2.35022925864369      0.05885954813770
  C   4.42166189917254      3.25083850047538      0.06512018138299
  O   4.23467857235920      4.42402540860079      0.06339435189831
  C   5.61162534076855      2.42158192118955      0.07267102653688
  C   6.97079920180670      2.91475973283177      0.07782165905667
  O   7.93810250105213      2.18202913312642      0.08286957352721
  C   5.21035072289467      1.10101453896469      0.07230602963371
  C   5.87791096214841     -0.14523525367374      0.07754296965289
  C   5.10902963403783     -1.27231455148820      0.07558621800813
  N   3.75497989743220     -1.22169131929946      0.06711939357302
  C   5.63857165943357     -2.66783660116453      0.08275745086679
  O   4.87273186298900     -3.60037445551283      0.08572445629908
  C   7.07722423748672     -2.82265528916976      0.08487084609623
  C   8.26845882932649     -2.93948768134461      0.08627226518599
  H   7.08284274318407      4.01131448705338      0.07650132128120
  H   6.95630323947811     -0.20410566005026      0.08360135864093
  H   3.26646194679239     -2.11172873429849      0.06723212972642
  H   9.32882450182603     -3.04636154090124      0.08748994995938
