27
Coordinates from ORCA-job 18470optt
  Br  1.10119083109123     -0.08907239798656     -0.05179888250411
  C   2.98592995997831     -0.08268319310865     -0.06544202414349
  C   3.67097402279215     -1.29635499029382     -0.07165857523084
  O   2.97124436476022     -2.45160006035862     -0.06186183721454
  C   3.74207051092218     -3.58351213569216     -0.41905378350053
  O   4.91218108709534     -3.65433229343692      0.33229716540166
  C   5.79255790233157     -2.60794900034723      0.02621135267250
  C   6.57919968165601     -2.87197537628652     -1.25540171460223
  O   6.42791656627943     -3.83783593716512     -1.94109230156724
  C   5.06675959720873     -1.28294096665940     -0.05994671609297
  C   5.74904884766172     -0.07389510107134     -0.07351698159742
  C   5.06775317924980      1.13642947624683     -0.08003043266839
  C   5.80964186541532      2.44540513963684     -0.02260882974889
  C   6.21473612770330      2.82839049536080      1.41357113499374
  C   7.17076816462631      1.87495843464539      1.97564965825702
  N   7.92558651118578      1.11122083722781      2.37673289926750
  C   3.67546458052725      1.11595647564459     -0.06924139732093
  H   3.96880578720660     -3.53312963204832     -1.48824264448362
  H   3.14151691532545     -4.45450148765528     -0.18053057012734
  H   6.52176996101639     -2.55746000557121      0.84121984319254
  H   7.31282536036072     -2.08308223375494     -1.51189461711461
  H   6.83336128370203     -0.07694486364637     -0.03844305034880
  H   5.18047589414815      3.24510590009516     -0.41421322535779
  H   6.70694274231669      2.40211627192992     -0.64163824650003
  H   5.33509377049315      2.85371355678578      2.05916586874740
  H   6.67256963129949      3.81834687265281      1.43164162075735
  H   3.11461485364660      2.04262621485653     -0.06787371316594
