25
Coordinates from ORCA-job 18477optt
  Br  2.45277175048200      0.18472708410534      3.79195777544229
  C   2.98876617378297      0.59170858283033      2.05626377539679
  C   3.12771746907418      1.84736589245578      1.59265302650362
  O   2.81786366749801      2.96940564865407      2.30779260710462
  C   1.86600739878854      3.82164087852365      1.76577705142238
  O   1.97883411787929      4.98081083710000      1.99077626317559
  C   0.62617098808691      3.24936683473872      1.06758656913916
  C   0.69036507555268      2.47867921972820     -0.25678666124885
  O   1.56659949619264      3.12297667384674     -1.16171807492931
  C   1.96215437949743      2.36629357176196     -2.27838243251455
  C   2.96874639100538      1.21028809046207     -2.03962299800330
  O   3.23056442225863      0.48517594116549     -2.96428809156517
  C   3.38088337909335      0.97014962029160     -0.63596686712214
  C   3.46044410659961      2.00864590579743      0.21845903776723
  C   3.31216790584683     -0.39719030594796     -0.10662598736164
  N   3.33419796032811     -1.49910424540482     -0.69910337979016
  O   3.22377162738183     -0.47358505299151      1.29496999040808
  H   0.00571029319465      4.13187425136346      0.92761381698990
  H   0.12737979672993      2.60208981275028      1.79570040080685
  H   0.98850551047117      1.44027226740695     -0.09302727104601
  H   -0.32074735979255      2.46010728099506     -0.67735233466836
  H   2.41612613950297      3.05948330855804     -2.98750025269523
  H   1.10475720492247      1.89895038091881     -2.77601719573575
  H   3.58161073231644      3.02091009001003     -0.14037874840276
  H   3.44763137330648     -1.35904256911976     -1.70078001907326
