28
Coordinates from ORCA-job 18475optt
  Br  1.87283284224299     -1.30282291283397     -2.57674364007278
  C   2.98761623261068     -0.38731762844273     -1.38393159883833
  C   3.11712793019949      0.96146836666275     -1.42381771634949
  O   2.35001175869314      1.74829965433089     -2.23731029233529
  C   1.23672882305682      2.28239413737064     -1.54935305492718
  O   1.62052853290425      3.23138470423678     -0.58257493726097
  C   1.12142011396503      3.11045635013877      0.73528106963659
  C   1.92102287876015      2.23262438396667      1.70166544661943
  O   3.21829717610421      2.76342170851470      1.92805916696508
  C   4.27350710721938      1.81701956102522      1.94167390621444
  C   4.21806659985347      1.01103682897134      0.66654394894380
  N   4.07601959418509     -0.34337360440425      0.73266117772414
  C   3.64923244256278     -1.16145341784381     -0.33179019121804
  N   3.71899320920266     -2.43157654631020     -0.33976269570458
  C   3.91574626805222      1.65813108050247     -0.47400591060864
  C   1.02200464341499      4.52266683340160      1.29977490636555
  O   0.62090209884217      4.73997732988588      2.40508731578717
  H   0.67201484569603      1.46777318462839     -1.08066078331042
  H   0.64876017432980      2.77526367220605     -2.32123139021109
  H   0.09876899855441      2.71091967850383      0.72209250237335
  H   1.95700269720884      1.21194805158017      1.31175616776717
  H   1.36708397207965      2.22220351706881      2.64523173152445
  H   4.19781184384683      1.15443052535105      2.81289769120413
  H   5.19129270334743      2.39675362860013      2.02611575206190
  H   4.29148008945122     -0.81419284942297      1.59915581821291
  H   4.16971115167986     -2.80080585297758      0.49428544787359
  H   3.94875598014767      2.73303150009509     -0.51443533715225
  H   1.33425929178874      5.32633811519427      0.60933549871535
