20
Coordinates from ORCA-job 18482optt
  Br  1.08650712062193     -0.01311366080390     -2.36708635018800
  C   2.10538249890377      0.68719760053693     -0.94402092103238
  C   3.00228935811624      1.67280803665632     -1.19982175888747
  O   2.89839769319825      2.43312087214441     -2.33229236034858
  C   1.90157865635740      3.41502049253526     -2.21973408854729
  O   1.51986667162444      3.95944552303086     -3.19456027502787
  C   1.50753330024022      3.71384009262438     -0.79538875601926
  C   0.54304170965745      3.09080265805070     -0.13550575196050
  O   0.34783303491942      3.32208866430353      1.20388720891819
  C   -0.21216121306167      2.31797995173081      1.96588465679994
  N   -1.41120819579924      2.26762917476986      2.30502329087415
  S   0.90048900173025      1.11435876377364      2.70975774385427
  C   2.04065883768094      0.97679261176226      1.34422930486043
  S   3.52888042889685      1.82618585572635      1.51863905767058
  C   3.96875666746408      2.14630735848937     -0.20798589991295
  O   4.93670997298323      2.81042657113384     -0.43414231084870
  N   1.62281068664956      0.39012304637247      0.28567850262570
  H   2.15440867682484      4.41165436561994     -0.27319965769589
  H   -0.12444189424437      2.35811668264045     -0.57985927487311
  H   -1.93633301276361      3.06221533890247      1.93749763973875
