21
Coordinates from ORCA-job 18488optt
  Br  1.11880194717512      1.41487765803681      0.49256077141738
  C   2.82299921154764      0.72568749214785      0.10766611726933
  C   3.08931229676058     -0.57382173785914      0.35077783143328
  O   2.21608412810523     -1.39144123329626      0.99764778519865
  C   1.30678497190832     -2.16157615240013      0.22708964439612
  O   1.69136328499813     -3.48991152747687      0.19227737531534
  C   2.88921869067861     -3.73546666072459     -0.49754672311691
  C   4.14841761577676     -3.57822919611956      0.36339597273439
  O   4.61617279232107     -4.45318781571506      1.01033419615173
  N   4.86168024400590     -2.32800547867329      0.22212227601277
  N   6.20368040265336     -2.37070554782185     -0.03888269980749
  N   6.58769761154627     -1.20442838076156     -0.35798136754380
  C   5.51979462370367     -0.34920550038943     -0.31454391871969
  C   4.40298557471924     -1.06523683397708      0.06112378880083
  C   5.55493949092937      1.06652417574189     -0.62402299527332
  O   6.48773310486002      1.72811435384373     -0.96271062634818
  S   3.93723550457409      1.90123453221971     -0.50600926381668
  H   1.24100123521241     -1.73594692002929     -0.78154543112132
  H   0.34727583047967     -2.12879063237289      0.73532875060179
  H   2.96357604580208     -3.10431961142312     -1.39079502204894
  H   2.87824539224242     -4.78416498294985     -0.78828646153530
