23
Coordinates from ORCA-job 18481optt
  Br  1.70311526071735     -1.93691208454065      1.25847763477791
  C   2.54025552198822     -0.41432968953941      0.56829266277661
  C   2.13328218888815      0.83752227534553      0.89961516531910
  O   1.08681951226984      0.98864789926402      1.78206876549359
  C   -0.17538897573294      1.33425387282594      1.27022992712297
  O   -1.12502587249397      0.68540494201019      1.53295273625884
  C   -0.02706536932632      2.62006560028005      0.55083108389541
  C   0.41114990685378      2.67217005024243     -0.69428196277147
  O   1.17951285487189      3.72857428265354     -1.12056495622747
  C   2.24330973769091      4.09532102510511     -0.32826415540191
  N   2.86993449513461      5.16197909359649     -0.46537838901551
  O   2.57130501689546      3.21627549744434      0.65981972447682
  C   2.88198480048783      1.92238328403783      0.29994881598236
  C   3.88761236356001      1.70210692824179     -0.57079265386860
  C   4.29670651480560      0.36174855812511     -0.93991412262405
  N   5.20151149513807     -0.01763066365911     -1.75254219808648
  N   3.57625123681759     -0.63569731850236     -0.27382511397694
  H   0.15549509323815      3.46123862486231      1.20985924087038
  H   0.31485981733724      1.88345066515889     -1.42943387952521
  H   2.43895912600814      5.74358422537645     -1.17980659610585
  H   4.42271618877038      2.54395655760370     -0.98998593075437
  H   5.67347650606667      0.77639415852016     -2.17188236827963
  H   3.85122258001330     -1.58450778445239     -0.48742343033651
