23
Coordinates from ORCA-job 18493optt
  Br  1.99069461387653     -1.12381708888158      2.23230508720124
  C   3.39806923335597     -0.51776339894227      1.15098061328845
  C   3.23755950070458      0.24836769944519      0.07573231513565
  O   4.36818362579993      0.67156836122488     -0.60350570081293
  C   5.55634828639644     -0.00857810204771     -0.55169426797252
  O   6.52647868135373      0.41225611201009     -1.08065609283077
  C   5.38386966373834     -1.32037336272978      0.16826983463645
  N   4.62279455752044     -1.17191050162154      1.32830586720188
  N   5.80652458875065     -2.39112774679534     -0.35213761284163
  C   5.04268730629737     -3.55272225154818     -0.24585799983487
  C   3.73329360256882     -3.51811370281608     -0.62712709612920
  N   3.17893818302670     -2.30069779672968     -0.95140438571495
  C   1.93172641243245     -2.08302218767128     -1.08054663021505
  C   1.42151324368000     -0.70626581027500     -1.23534528482112
  C   1.98227579752948      0.38098678661391     -0.68811748628235
  C   5.68666440912114     -4.77751076085101      0.09994478043146
  C   6.23177308551818     -5.79927431879854      0.40929346183248
  H   4.60469237008167     -1.96973990952118      1.94907900089951
  H   3.15845851520535     -4.43892258767324     -0.67629272917085
  H   1.18739899849501     -2.88436880367209     -1.01790211416968
  H   0.48781294998125     -0.59333933242765     -1.77558752340503
  H   1.54156248668228      1.35856890804138     -0.84291418608728
  H   6.72067988788361     -6.70620020433325      0.67517814966112
