24
Coordinates from ORCA-job 18498optt
  Br  0.96977613001215      0.46307032645421     -0.23371532913960
  C   2.83008682091574      0.32928781030860     -0.05730222720864
  C   3.60773383064247      1.41444324195869      0.05422899351646
  O   3.23224396819927      2.71717848079421      0.01386502218761
  C   4.34132856233954      3.51440433467543      0.03273704451518
  O   4.30007194518283      4.69311868078648     -0.05419665339087
  C   5.56906241347651      2.62361110655362      0.19729135152962
  N   4.97216975488263      1.31686517967867      0.19126438817889
  C   5.63926647925276      0.09200164608181      0.08897994346540
  N   6.89454403570624     -0.09536922379151      0.08538138098804
  C   4.68835249801486     -1.02864693002790     -0.00339138114949
  N   3.41445459069733     -0.90966713549345     -0.06242000852964
  C   6.34595885636589      2.98370071821052      1.47896644018269
  N   6.54783339853671      2.19684288465918      2.44660577522165
  N   6.83750870807880      4.26178366378667      1.42485411752606
  C   7.69390359236639      4.86985063501850      2.35951499268926
  N   8.23098816937687      4.37179628230121      3.37850418618052
  H   6.23597309366726      2.76600774684563     -0.66094240272358
  H   7.44310106214469      0.75599497465801      0.18556733328644
  H   5.13100414332584     -2.01768138998409     -0.03411836278938
  H   6.12723961881364      1.28372544226882      2.30104646052016
  H   6.44966807522634      4.86912832417352      0.71740918772880
  H   7.88570875708871      5.90763858566623      2.09013119455494
  H   7.95302149568645      3.40191461441690      3.51873855265949
