26
Coordinates from ORCA-job 18508optt
  Br  1.75096633472568      0.65894155615776     -0.52307569892381
  C   3.52249300336191     -0.00648376372391     -0.38978452184333
  C   3.71107179627751     -1.38062332472421     -0.27620462815652
  O   2.64014709193450     -2.21704544096953     -0.30693819062271
  C   2.60829825957836     -3.18075835288349      0.69980474869301
  O   3.32815413429143     -4.34521700813239      0.35229776773414
  C   4.63323252636390     -4.22435353277919      0.07622516522496
  N   5.36713392917570     -3.21072098442791     -0.09326744531546
  C   5.01377168730468     -1.86075372974343     -0.14270359758084
  C   6.06399597592715     -0.92910771795061     -0.13259169320787
  C   7.48468166764013     -1.41133498799744     -0.00994488106917
  C   8.53293985587315     -0.32224646173875      0.12411176092775
  O   9.69403536094695     -0.55605329732841     -0.08706881728323
  C   8.03757030707768      1.03732896290574      0.54946831870552
  C   6.84441483660571      1.45698377823244     -0.30811058254335
  C   5.75501732638630      0.41880549027143     -0.27700900718992
  N   4.49926755178015      0.86077859444359     -0.40367634493357
  H   1.57823174078136     -3.50003320885840      0.81742135998317
  H   3.01210985589367     -2.77280399794642      1.62956344127613
  H   5.08031323695989     -5.21103694201250     -0.00099783926899
  H   7.58298837393523     -2.05653190535332      0.86852445858592
  H   7.75599675534948     -2.04660488890223     -0.85530290860843
  H   8.86167860901461      1.74520511637435      0.49064876462652
  H   7.71678697569783      0.96160491445790      1.59419314785799
  H   7.16737386995037      1.60422634182001     -1.34359551414388
  H   6.42932893716662      2.40483479080895      0.03001273707597
