22
Coordinates from ORCA-job 18507optt
  Br  1.14864828020388     -0.15724865331979      0.26793395887692
  C   3.00063398130780     -0.05649363854237      0.04236696445722
  C   3.70434066992975      1.05518625425351      0.22157262212021
  O   3.15040786371491      2.26518811350470      0.58284845829182
  C   4.08883912969165      3.24875442663018      0.48563725159548
  O   3.87059718300944      4.39229070222844      0.70716571992540
  C   5.40580616397406      2.61750771475480      0.06006890815991
  N   6.47096482821142      3.26854563313796     -0.13795828299107
  C   5.13041180252278      1.18895207003814     -0.02153300265824
  C   5.98120339819603      0.13665317569327     -0.15273839040085
  C   7.38377017431709      0.36745405086964     -0.45886565620711
  C   8.42578239964455     -0.44641371733010     -0.22014690635642
  C   8.42674961759067     -1.73789821491036      0.43447055106261
  N   7.45918329136946     -2.54332639742549      0.67122934764379
  C   6.14224696487827     -2.33910615953876      0.33913221971149
  C   5.46634532910679     -1.22711413900308     -0.05051616759540
  S   3.78948399510068     -1.51484402955092     -0.54193132630611
  H   6.29581421671603      4.26349784088029      0.02764335830744
  H   7.59091633334717      1.33170264142179     -0.90739780950346
  H   9.40698875374587     -0.07826176100772     -0.49731733479147
  H   9.40542248603481     -2.08946356877305      0.75608742747113
  H   5.54644313738679     -3.23856234401108      0.45124808918673
