23
Coordinates from ORCA-job 18502optt
  Br  1.02239533183824      0.30483616116153     -0.07700521694710
  C   2.89118078571839      0.24813317907812      0.08725874073226
  C   3.63701357565433      1.37269252110254      0.02676681390834
  O   3.22441652779675      2.64764821637335     -0.13038166653995
  C   4.31901383676082      3.49335324165981     -0.10010293638710
  O   4.22497455903838      4.66169101643238     -0.18858844761832
  C   5.57708068499294      2.63068439587574      0.05601098305541
  N   4.99060674897079      1.31112770224403      0.12831153689279
  C   5.69884879059794      0.13316410960988      0.34249111409934
  O   6.90296111525617      0.13531416373657      0.46288680046587
  C   4.79508846186012     -1.01915059444792      0.38903919380652
  N   3.51299435674289     -0.93935844107830      0.26807656548896
  C   6.35732451142671      3.00856215698217      1.27921020296303
  N   7.42064917355097      3.67388125004665      1.27354817805507
  C   7.76517592770777      3.88214557088104      2.68673169188996
  C   6.75992694687807      3.00514967231554      3.45840045428307
  O   5.79995615185171      2.62605703351266      2.44746644064141
  H   6.22644690892657      2.74924064527262     -0.81233913145473
  H   5.25094499563675     -1.99091717517211      0.53813028802006
  H   7.66589199155363      4.94302213425018      2.91969995869349
  H   8.79841495122721      3.59015275775628      2.86353343326770
  H   6.22935235140038      3.52558886642425      4.25131637379888
  H   7.20634131461238      2.09098141598294      3.84753862888502
