21
Coordinates from ORCA-job 18513optt
  Br  1.17776171961152      0.01603822257177     -0.07203265085130
  C   3.04594273946452      0.06049033920990     -0.07119051123488
  C   3.72742870813042      1.23884513387593     -0.07082104277936
  O   3.04981266540718      2.42279876001206     -0.07086976408915
  C   3.71869600345290      3.60701085261939     -0.07055254794074
  O   3.12042594950238      4.63555768119025     -0.07077010116919
  C   5.20636850914525      3.52066290337845     -0.07030654175556
  N   5.86896239580036      2.43643901794115     -0.07019616803530
  C   5.15232048562732      1.24830061658910     -0.07040111937729
  C   5.83923518569741      0.06338033995884     -0.07027905629235
  C   7.26417854467917      0.00258070143144     -0.06998579070143
  N   8.40427609936707     -0.12256796735232     -0.06971176195611
  N   5.15810933974008     -1.12342718908868     -0.07048221363050
  C   5.64291449104319     -2.40246866712385     -0.07033300896117
  C   4.56514867977665     -3.25519705171903     -0.07079809765903
  C   3.37924351660570     -2.49445326526042     -0.07103123690237
  C   3.75015612726448     -1.16733121064617     -0.07097024461396
  H   5.72428620853244      4.47373002659131     -0.07017339579896
  H   6.70380848850522     -2.58522955669507     -0.06997386473615
  H   4.63281732733067     -4.33039847063052     -0.07082862883625
  H   2.36510681531602     -2.85376121685356     -0.07129225267897
