25
Coordinates from ORCA-job 18518optt
  Br  1.27015968915583      0.18333030204271     -0.09308190750895
  C   3.10530522655569     -0.08852395295143      0.05600295945956
  C   3.68044166675623     -1.28996547986561     -0.08042032814764
  O   2.95482574335880     -2.40268857008725     -0.42470282611260
  C   3.48859468097900     -3.64136111332394     -0.29211745691904
  O   2.83993383275272     -4.59709199173151     -0.56752401487394
  C   4.90083781860752     -3.73696425247780      0.25167849673653
  N   5.68504112274572     -2.54579020225853      0.00423159023334
  C   5.11482834417940     -1.32496771700129      0.07894938580786
  N   5.82993062391896     -0.26218330420849      0.25396860492939
  C   5.22074950953315      0.96651500251100      0.28946115980623
  O   3.80504923302062      1.00791985911215      0.29988318895882
  N   5.76300659855299      2.09308453131355      0.34777159259668
  C   7.21387735222953      2.14573631132662      0.36298752704332
  C   7.66025958089507      3.53765994422758      0.76852909397044
  C   9.14478320475977      3.73944179477520      0.70630193001394
  O   9.92905484780472      2.91729820583382      0.31611349744627
  H   5.36067933941716     -4.59659523912171     -0.22867005259066
  H   4.80984181667311     -3.95659593206610      1.32223890334370
  H   6.67958080141772     -2.57352100906408      0.17782236708002
  H   7.60941135413180      1.91167405194877     -0.62921994479264
  H   7.63822920027799      1.40069699290651      1.04139073704652
  H   7.32434845451410      3.78004001190223      1.78205733644306
  H   7.19460710934134      4.29271722686715      0.12546419628495
  H   9.50462284842094      4.73013452939045      1.04788396374484
