25
Coordinates from ORCA-job 18511optt
  Br  0.89936461749384     -0.01834751980706      0.04121047940943
  C   2.74351225267109     -0.26360578940143      0.10059033402362
  C   3.33184793435421     -1.46316438401620      0.11249588638146
  O   2.61858711209996     -2.62731285224887      0.09070779795833
  C   3.27074062029319     -3.57614322941446     -0.69955811461994
  O   4.51802699715801     -3.92420387716160     -0.13530120230465
  C   5.34519923283422     -2.91132563687701      0.23580020701105
  N   6.49557669166717     -3.13987700936618      0.69366680393847
  C   4.77639686038016     -1.53560190329200      0.14356872369066
  C   5.51696893453238     -0.40281220719717      0.10893259273427
  C   7.01496614161390     -0.36294081543537      0.06741888202413
  C   7.61040599213814     -0.24372676320433      1.48207016028616
  C   9.06781849036726     -0.16525430669043      1.42912078812255
  N   10.20957937075804     -0.10189764155766      1.35685685936113
  C   4.82517170326208      0.90065995015187      0.15047714443682
  N   5.31740531302225      2.05821284205159      0.21144231890425
  O   3.44177624157453      0.87382300689797      0.14920862041679
  H   3.41994245041614     -3.18395579674179     -1.71086245371803
  H   2.66830684644998     -4.47790297198430     -0.70446271143204
  H   6.68532403383605     -4.14190580255607      0.70145052939051
  H   7.33887410772749      0.48175316122835     -0.54252382316119
  H   7.40081673282649     -1.26989032904338     -0.38795006747221
  H   7.33096688302714     -1.12655838759572      2.05720704774534
  H   7.23070435019051      0.64020051491615      1.99781774249607
  H   6.33072008930568      2.04477774834511      0.21061545437701
