27
Coordinates from ORCA-job 18527optt
  Br  1.84135340959929     -0.92650712873580     -2.90488705009340
  C   2.88079024109744     -0.31524287531317     -1.47007772627785
  C   2.50169537154478      0.73687952020659     -0.70815411182047
  O   1.27860882734053      1.31343715042710     -0.92403822974933
  C   1.23405381758192      2.65921296109022     -1.33322595219962
  O   0.19328155595492      3.32607145305010     -0.67283245220497
  C   0.45380756991845      4.08911753659364      0.44183104296238
  N   1.04005885031951      3.76066781293928      1.50233973330522
  C   1.54568085899136      2.41700965422352      1.72040551319688
  C   3.02003302309846      2.30081683305767      1.26472092859907
  C   3.35104066867659      1.10922555882870      0.40180401856481
  C   4.47954223302046      0.39974315416771      0.63863925192290
  C   4.90641461800195     -0.71792268955524     -0.18316331440436
  N   5.95356935495388     -1.44332278237675     -0.08846434512810
  N   4.01832019986459     -1.00956255575889     -1.21838860174955
  C   -0.10077385475434      5.41511534848886      0.29944069268557
  C   -0.56412232552910      6.51041876974712      0.16726001506432
  H   2.19316730223270      3.15246736860808     -1.15987065426850
  H   0.97643989107930      2.68825363267867     -2.39149076883853
  H   0.92282511482308      1.67254264997825      1.22610718819757
  H   1.49672712789096      2.23737924815340      2.79278405198964
  H   3.67611136641045      2.28184434795219      2.13377301042267
  H   3.28379928258594      3.21071566532268      0.72128423410353
  H   5.12159698759614      0.66424743711390      1.46912839948689
  H   6.52722733498143     -1.15006879803293      0.69539319390213
  H   4.27755829768361     -1.78251981872086     -1.81479428604837
  H   -0.97580712496431      7.48598054586593      0.06147621837946
