22
Coordinates from ORCA-job 18521optt
  Br  0.99179030261155     -0.34046542134671     -0.09590376667617
  C   2.83681530696874     -0.24798640204937      0.07762153131581
  C   3.66457838655421     -1.29202680326861      0.03259902909562
  O   3.32467344803981     -2.58881677924747     -0.13691411217613
  C   4.50520840060731     -3.32367816197387     -0.12873831779225
  O   4.52808478846311     -4.50981286084020     -0.25639549978031
  C   5.61370650797002     -2.38915482298698      0.06611900873884
  N   6.89973723697363     -2.89747872325100      0.14595851005738
  C   7.97257171527554     -2.17388209723111     -0.35071266362668
  C   8.08517938268215     -1.11169957352927     -1.21350994098423
  N   9.40224946401369     -0.78797057211588     -1.31173799798334
  N   10.09988061725247     -1.57907074967663     -0.57837020792326
  N   9.24605892443754     -2.41867542915788      0.02279473829043
  C   5.09510903664444     -1.14309636724013      0.17607184964758
  C   5.55935674119281      0.19982074118924      0.39585964985533
  C   4.64988940848812      1.18378050993448      0.42719012021011
  O   3.31719083519073      1.00727485344898      0.26552094789819
  H   6.92592526337862     -3.90196269725965      0.01456759892609
  H   7.31869484805008     -0.58579545023958     -1.75497088317918
  H   9.58858318048611     -3.11061957278509      0.66963327429699
  H   6.60184823258361      0.43580379322925      0.54369923237623
  H   4.88186797213562      2.22551258639749      0.58861789941294
