23
Coordinates from ORCA-job 18525optt
  Br  1.04466397992988     -0.09227422357912     -0.40499477686236
  C   2.89372247853177     -0.08209142000356     -0.19393993176253
  C   3.61800197470279     -1.17255435888127      0.11515535536673
  O   2.97798475922881     -2.35591014863240      0.36723729419570
  C   3.12296951732430     -3.48625917038504     -0.42288624757096
  O   2.14883922889032     -4.09460615735524     -0.71519706781082
  C   4.52899757205661     -4.02575934095421     -0.68398274551174
  N   5.69087691927800     -3.17845007515408     -0.63786570775259
  C   5.82441816373585     -2.30058774279869      0.50763641400837
  C   5.03854819311168     -1.03707492875564      0.28008932894908
  C   5.59307321837971      0.17431058026796      0.08624169762381
  O   6.94800003334289      0.41629518557224      0.18274249534326
  C   7.73011043780286     -0.06142799906674     -0.80996926381970
  O   7.36904548311175     -0.79666298987231     -1.67342963766177
  C   4.81400700953365      1.35098999375672     -0.27595941306406
  O   5.22921666078753      2.44378575790301     -0.50019533260028
  O   3.44924754278312      1.12070675011903     -0.36378184865572
  H   4.48617400348494     -4.53724151791084     -1.64360539967588
  H   4.63156365888170     -4.81071962440456      0.07518597327695
  H   5.87002545688348     -2.67943927842189     -1.49995120430829
  H   6.87246181806871     -2.07029071792312      0.68497223463032
  H   5.44214467066756     -2.81478928003153      1.39225795279653
  H   8.74590721948204      0.32205070651129     -0.67876016913405
