27
Coordinates from ORCA-job 18528optt
  Br  1.79055852562356     -1.33683032318188      1.91420931421420
  C   2.97988703147899     -0.20529983006524      0.96678987272674
  C   2.63627463714175      1.13879027374809      0.76260571814644
  O   1.47618171501498      1.66906907816979      1.22793158344706
  C   0.28087093659038      1.33463704350086      0.51638732371755
  O   -0.65833489096652      2.34354619660001      0.65655187742346
  C   -0.48028753499317      3.57196598517945      0.04719055932103
  N   -1.43447864858947      4.12436870114370     -0.55290857108928
  C   0.84800777912035      4.24629317954627      0.22735688820444
  C   1.93709010835161      3.75587148051747     -0.75336563078518
  C   3.29039459290822      3.43201240158987     -0.09236435632305
  C   3.55856594956648      1.96586769869244      0.12294140019044
  C   4.75051979569279      1.38895647309859     -0.30089565312039
  C   4.97012834314417      0.04035916225175     -0.07052986653427
  N   4.09987287487245     -0.74605548088674      0.56063251074690
  C   6.20016243107191     -0.56601659006778     -0.52409418667698
  N   7.19032226958165     -0.99761468067339     -0.90762133344107
  H   -0.16846689937224      0.44869747997304      0.95671219073347
  H   0.53344619841730      1.15600480198718     -0.53396816833767
  H   -2.25163462600048      3.51373550723992     -0.56797851571984
  H   0.67054067023620      5.30892607283494      0.08067134764628
  H   1.16744574688368      4.08783934773824      1.25594406118816
  H   2.09236459980274      4.53066506589270     -1.50263023519187
  H   1.59508963294705      2.88519076792988     -1.31565244437087
  H   3.35142375643952      3.93990931690263      0.87411262095423
  H   4.10534366695998      3.82632500712786     -0.69898812472590
  H   5.50171133807611      1.97878586321031     -0.80904018234402
