18
Coordinates from ORCA-job 18523optt
  Br  0.99604312313318     -0.35459012594503      0.74795210079914
  C   2.77733635253032     -0.26404283373212      0.24773282337253
  C   3.61211883492419     -1.30015374164541      0.15091658991573
  O   3.37068097224133     -2.60456820973263      0.36207922030311
  C   4.56592224159238     -3.30639481466484      0.11602711370345
  O   4.62564851470075     -4.48441618550863      0.21219596460011
  C   5.59273837204919     -2.29431227074457     -0.22838540309876
  N   6.87652360706446     -2.67833468562718     -0.55609335237229
  C   7.87590145944320     -2.11486246484419     -0.02537976696724
  S   7.90728367065781     -0.88907894333604      1.24714282896146
  N   9.60985125842699     -0.84793341071942      1.43137210125775
  N   10.29218491583815     -1.55526810849784      0.69493429816842
  S   9.52445367316733     -2.52965741961046     -0.46015079188738
  C   4.97689612606627     -1.08429592469105     -0.22059452949373
  C   5.30632675918022      0.28005709920409     -0.53823579641993
  N   4.47509967624709      1.25194267326072     -0.44688441829582
  O   3.19638496259095      0.99777266437550     -0.02098820838699
  H   6.28660548014613      0.57713670245912     -0.88864077415956
