25
Coordinates from ORCA-job 18529optt
  Br  1.04125009908228      0.03579367849048     -0.36063988565957
  C   2.89010506402860     -0.05647177676960     -0.11850532932315
  C   3.55752715019464     -1.21484276052674      0.03591160210856
  O   2.89578057519843     -2.41168868578402      0.03863220659667
  C   3.27770793019461     -3.29888805045424     -0.97781632084208
  O   4.37571587800920     -4.10694055724712     -0.62856763323351
  C   5.60959871396885     -3.51844258116418     -0.49395630220523
  N   6.62141460570475     -3.95318190764678     -1.09395657222904
  C   5.74916296145455     -2.42059131972899      0.54016427727756
  C   5.36112405500921     -2.98264312720227      1.93320013693570
  C   5.59428318949995     -2.00694659974461      2.99074762732195
  C   5.78411688783489     -1.17870253730943      3.83442795202270
  C   4.98117027143237     -1.15824383007642      0.23749811416814
  C   5.59998640148912      0.03987230678403      0.23225894575854
  C   4.87297758225268      1.27909799364149      0.05102481659616
  O   5.31259279312199      2.38567944382782      0.02508184187978
  O   3.48595584499995      1.13165731125823     -0.09697374432376
  H   3.49992512789435     -2.74041801996562     -1.89286335565550
  H   2.45069956871709     -3.98646995106588     -1.12334957505006
  H   6.36804668567238     -4.72222685619643     -1.71498330130969
  H   6.80786054476385     -2.17038184224391      0.55298045229433
  H   5.96123478336260     -3.87657768678183      2.11522295183292
  H   4.31335603059579     -3.28507998707046      1.93170584223716
  H   5.94715096558794     -0.44807001048640      4.59078362686185
  H   6.66425628992984      0.13670735346291      0.38997162593957
