20
Coordinates from ORCA-job 18522optt
  Br  0.89024667605397     -0.48295564537703     -0.39561664564283
  C   2.72106541468615     -0.29467069848877     -0.16559711307840
  C   3.59790767565360     -1.29377636883249     -0.12735486398262
  O   3.34978132418767     -2.61702772181904     -0.24968037703397
  C   4.56138916916507     -3.26786627977135     -0.15320420507263
  O   4.68073455980548     -4.45184014299048     -0.22246400262567
  C   5.61316422711432     -2.25158394403700      0.04297776712110
  N   6.88278248422957     -2.75107341754398      0.15527490257550
  C   8.02905914399966     -2.07631404651883      0.44251972038980
  N   8.13779761498024     -0.77363076404526      0.62052410551125
  N   9.43828575153985     -0.67375399346763      0.86841625733717
  N   10.08387235170937     -1.80223052959575      0.84910331489418
  N   9.21300834089919     -2.72167297507352      0.57885050317311
  C   5.00320449645600     -1.03937464045500      0.05598991573085
  C   5.32123423232711      0.36325377577226      0.18271725036998
  N   4.45475533713412      1.30511041175273      0.14108461397328
  O   3.11766003491431      0.99285101202149     -0.03179341940994
  H   6.95619997532744     -3.75864546975689      0.08725768688178
  H   9.89425768299033      0.20462760061632      1.06085239666606
  H   6.33659350682648      0.70257383761022      0.32314219222200
