27
Coordinates from ORCA-job 18537optt
  Br  4.27479577099537      2.07098315267768      2.63740245774784
  C   3.88838401964616      1.15814420952043      1.02608814184443
  C   2.56360474717422      1.02577135526593      0.64836142399503
  O   1.52817979113466      1.32218407144305      1.49247350825588
  C   1.19726336022466      2.61192868803671      1.83637945537092
  O   0.55839996732145      2.79367974396407      2.81934728682312
  C   1.49108850546417      3.69867083808772      0.81196631109973
  N   0.44651101638936      3.68077549136238     -0.19641217265508
  C   0.55064760504906      2.74342604468014     -1.29453142800089
  C   0.05410821959329      1.30359842772047     -0.99077043913633
  N   1.09275759551273      0.29267516687066     -1.14635809511488
  C   2.33096135613876      0.40879395829439     -0.59468944573335
  N   3.35480147631756     -0.10624307374465     -1.28489555422064
  C   4.56800802058387      0.04217806388732     -0.78754963244323
  N   4.89954925332608      0.69218772447740      0.32438583136604
  C   -0.79506867389220      4.17775476101708      0.15232979174494
  N   -1.91290018389163      3.99292766661487     -0.41424043856237
  H   2.46331970751738      3.57968766791730      0.33603697849022
  H   1.47136861344880      4.64683790828885      1.34555325681360
  H   1.59756373808047      2.70690920256734     -1.60019584187959
  H   -0.00323103637334      3.16036450412476     -2.13697116610165
  H   -0.74197857147542      1.02511857926041     -1.67899736476621
  H   -0.37144589132174      1.26300972153947      0.01121252439966
  H   1.13593817901825     -0.16074178929709     -2.04757102154323
  H   5.38342075175943     -0.39632222455866     -1.35076971060878
  H   -0.75579323760622      4.82733004057270      1.02636959422084
  H   -1.86625410013520      3.34237009940922     -1.19595425140601
