23
Coordinates from ORCA-job 18534optt
  Br  2.10068504841647      1.24339749398168      1.98390094533764
  C   2.53500557805132      0.14502394026184      0.52849156325432
  C   2.08980806924768     -1.12656047544870      0.42701247302592
  O   1.26896902424436     -1.68572647860282      1.36743824854991
  C   -0.04068246129389     -1.25786040691359      1.62484347901416
  O   -0.52593855129253     -0.24661988827464      1.26906101880264
  C   -0.55460660600019     -2.57110302483055      2.15189342821961
  N   -1.12680939716823     -3.17159593277183      1.18881783697433
  C   -0.41823766147910     -4.35352348452023      0.85429325847098
  C   0.29343658998391     -4.09539867970774     -0.24608048516014
  C   1.70583078698489     -4.50040232751512     -0.40910844662383
  O   2.12950100550970     -5.62397414720869     -0.26935442427546
  C   2.60806377433671     -3.38188785628910     -0.79838851663749
  C   2.67885854350893     -2.04637726994685     -0.56946720528061
  O   3.62608887270445     -1.45086724194743     -1.38578733736136
  C   3.97159679247797     -0.16026795339674     -1.32152385604099
  C   3.46818730536664      0.68431500094816     -0.42352271544699
  H   0.08367657502233     -3.07464079598947      2.88357178244573
  H   -0.20199251202266     -5.13033127489515      1.58276585922711
  H   -0.00456244165671     -3.22012742477818     -0.81211054777555
  H   3.39557342387782     -3.72965677802197     -1.45821047352273
  H   4.70151497967390      0.09528917081723     -2.07541932881493
  H   3.76703326150622      1.71889583504993     -0.38911655638228
