23
Coordinates from ORCA-job 18538optt
  Br  1.47397358900896      0.11267487002096     -1.04877584101959
  C   3.10237213816014     -0.08260258858313     -0.15132051238472
  C   3.93789189172178     -1.10283362183789     -0.39443451075572
  O   3.70075299043399     -2.08026282631920     -1.29550532223318
  C   4.76683690554728     -2.98079008747495     -1.25815495417673
  O   4.79780401432788     -3.94327207060712     -1.96196702749913
  C   5.71734753246288     -2.47259779191007     -0.27124867463863
  N   6.91243395754765     -3.13482380490606      0.00965086738200
  C   7.76193906756053     -3.48306198280940     -1.11467231095987
  C   8.43426787739439     -2.29903139061018     -1.67788802804887
  N   8.94061562759823     -1.36087681211899     -2.09577325834216
  C   7.35734756787293     -3.35309081043740      1.30553627190247
  N   6.74619520088536     -3.17433329717590      2.39570365455179
  C   5.21563811318867     -1.31817283859241      0.24755821959547
  C   5.71207128300525     -0.39117391481970      1.21766673713544
  C   4.99934600266675      0.68931916902705      1.58673602205108
  S   3.45351889079762      1.15571044399668      1.00387572663598
  H   7.16605924382251     -3.95975346859488     -1.89446309016576
  H   8.51678707916681     -4.19672920264593     -0.78754525033461
  H   8.37705400934380     -3.73586872493831      1.32841018527129
  H   5.79244693762675     -2.83958365333015      2.26537731925823
  H   6.68127068290201     -0.56337261453922      1.66620698625641
  H   5.38202939695769      1.38652701920623      2.32102679051880
