21
Coordinates from ORCA-job 18532optt
  Br  2.89561992789798     -0.11408078661615      1.86952653881301
  C   2.96105523293926      0.49205082470012      0.10091283167634
  C   2.44991019016664      1.69244486147336     -0.24795556863835
  O   1.73358829065766      2.42682353149216      0.68001569879080
  C   0.46951150958074      1.96093801086296      0.92577848175858
  O   0.07491387522140      0.88816702184991      0.59884439019389
  C   -0.48462267136539      2.92105108873725      1.61550900850900
  N   -0.75353238324050      4.10396913333540      1.26029186580723
  C   -0.00267432422332      4.65611478529320      0.21971016542132
  C   0.28403208188485      4.03014636998111     -0.92167935926664
  C   1.53001164970459      4.42506753194355     -1.57428749981654
  N   2.49997921595259      3.65235379960444     -1.82759523610084
  C   2.59630112008240      2.27185955745024     -1.59334419007568
  N   3.00696823375251      1.57411638424176     -2.59069015428616
  S   3.48296317967947      0.01642374783796     -2.54296351247603
  C   3.55055208471553     -0.46921576979139     -0.85039754092298
  O   4.00331305009828     -1.54121081873187     -0.54764301535768
  H   -1.07505938455383      2.44813154662497      2.39592490971158
  H   0.42786170662079      5.62501963172656      0.45265598985977
  H   -0.15687922425272      3.06949018051381     -1.16728696375669
  H   1.69918663868104      5.48733936747062     -1.75232683984393
