23
Coordinates from ORCA-job 18540optt
  Br  2.40330463561077     -1.44969318586759      2.24310600960683
  C   3.27781693691173     -0.49353196205759      0.89902847416088
  C   3.01756350831901      0.79045983843810      0.64438994787691
  O   2.09689037419038      1.50012943600369      1.37966549048020
  C   1.05880977026680      1.97293186241869      0.63524657368319
  O   0.69470777528223      1.46635234543955     -0.37806790521454
  C   0.47388381378051      3.27812870322138      1.13682661886034
  N   -0.34530683857652      3.24998172085393      2.09570495395415
  C   0.85931238217677      4.43275200192047      0.29145587473147
  C   2.06972228457961      4.49788709953907     -0.25403287226655
  O   3.02266324225807      3.61372301294458      0.15809618925622
  C   3.64965540674993      2.77052880245754     -0.73124873296900
  C   3.71025014257033      1.46103167099734     -0.45964168505916
  N   4.45094328257751      0.59250246689772     -1.27303322291863
  C   4.77524193384238     -0.71030073641525     -0.99850412609403
  O   5.49537624403949     -1.37911199290309     -1.69951624123513
  N   4.20438669583964     -1.20166164256287      0.16134228191918
  H   -0.71891094069004      4.18105234393202      2.28734759219928
  H   0.12792586820995      5.20890924724373      0.10749446363123
  H   2.38991635660989      5.26406978081146     -0.95310194796589
  H   4.12739020050604      3.22304905278603     -1.59256201721660
  H   4.89687298268801      0.95537682322073     -2.10147751260761
  H   4.40258394225747     -2.16456668931965      0.38048179318724
