22
Coordinates from ORCA-job 18548optt
  Br  2.22593103528241      0.80573818051723      2.26052413132798
  C   3.59329615553016      0.43113787370701      1.02478682941525
  C   3.30710016643897      0.20779021791806     -0.29828498268074
  O   4.29227821097645      0.14603780051567     -1.19171656448807
  C   5.59747044749066     -0.23100974600608     -0.84721671691318
  O   6.40310172162579     -0.30955188301592     -1.71915636768350
  C   5.73009887265848     -0.60189943152891      0.55893972742164
  N   6.22162363755539     -1.93366999913815      0.73536303685904
  C   5.30003757289226     -2.84548295403111      0.26478484911553
  N   4.16636155806414     -2.41228886925500     -0.13891771593966
  C   3.11203983672148     -3.11278826994157     -0.63699003403606
  C   1.99979406968409     -2.49919864521002     -1.10155966031646
  C   1.56580113081736     -1.09190714633246     -1.16812362717361
  N   2.06102838296405      0.03204276403591     -0.81484456476564
  C   5.69262058810162     -4.24420818633773      0.25452138702537
  N   5.95712212604958     -5.35836342394457      0.21205133562550
  C   4.80496916653165     -0.15733328583960      1.45093578683187
  H   7.20140367120788     -2.16226422600401      0.63681748546510
  H   3.15959467732356     -4.20206072555042     -0.68247276877117
  H   1.24059220713111     -3.16715701931923     -1.48935933281521
  H   0.56559473456662     -1.00621947506672     -1.59063847886665
  H   4.86914003038622     -0.49434355017233      2.47955624536269
