24
Coordinates from ORCA-job 18546optt
  Br  2.29045808047489     -6.38220250480641     -1.65556628135498
  C   3.40748888261509     -5.58210222276117     -0.36710502160712
  C   3.89772427233019     -6.31954623218723      0.65246271639814
  O   4.65561741762493     -5.68969379224720      1.58348285396577
  C   5.30141382012142     -4.48757219468211      1.37442209170936
  O   5.91738884244420     -3.99127803874153      2.26494080698762
  C   5.17582560561082     -3.97070357982960      0.00111452485791
  N   6.35853196952954     -3.38837735300526     -0.57348557841786
  C   6.96960534242234     -4.62571508900554     -1.05014185696091
  N   7.58250854293331     -5.38651013420307     -0.26142159060686
  C   7.38551603205531     -6.77022386007316     -0.21050669695712
  C   6.13305378925627     -7.19689666531429     -0.45544073450404
  C   5.28728663223082     -8.22667583570219      0.18077166617640
  C   4.10694708834794     -7.79657398383176      0.68751310608685
  C   5.71860698774368     -9.58229921928878      0.30161550885777
  C   6.11446940074921    -10.71065309889296      0.38785850578711
  C   4.12059881351485     -4.37849142340410     -0.73592328726441
  H   6.92494893138676     -3.01364274369899      0.18690995538681
  H   6.59666473910306     -4.92798174477959     -2.03242202968661
  H   8.15032177528770     -7.34799866345577      0.29116008074750
  H   5.51739618577342     -6.46674609317746     -0.95065634395238
  H   3.41143740167557     -8.46786288054123      1.17179082865878
  H   6.45879402364818    -11.71442659927522      0.46611461671198
  H   3.97139542312041     -3.98082604709530     -1.73248784101970
