23
Coordinates from ORCA-job 18556optt
  Br  0.66529528009159     -1.84564138300795      0.12023502630188
  C   2.09207029948774     -0.63381366431929      0.16335223842574
  C   1.84395252567422      0.70230657298650      0.18329594500444
  O   0.48248341413073      0.98428856229497      0.11814894969522
  C   -0.15693118143559      2.22621574784596     -0.19599646997866
  O   -1.31871145428457      2.25934601167328     -0.35134805326469
  C   1.03535252934450      3.09456311345763     -0.16558223076830
  N   1.57513845541326      4.43121632795696     -0.22683350139230
  C   2.77123984299396      4.20319709011557      0.12407287451457
  O   3.30970625321466      2.98964057061796      0.53497325568990
  C   3.07757207104690      1.60871400756397      0.22727292315938
  C   4.26902707329196      1.01509486219075      0.08312110261129
  N   4.48968839414079     -0.34040833058716     -0.02857018761473
  C   5.81244994483214     -0.73564929783690     -0.25005227529305
  O   6.20171022005835     -1.86221821140304     -0.34520098504740
  C   3.42152284870430     -1.27380791895816      0.13775212936442
  N   3.55001884509976     -2.52548850867973      0.21341318145626
  H   1.60132775299525      2.56191396711685     -0.92707514546779
  H   1.33319347349513      2.76906189017366      0.82573679062322
  H   3.52200787776594      4.97541356522731      0.23260013832318
  H   5.15469940566874      1.63316949291897      0.09186228537059
  H   6.48176355855976      0.13341782746801     -0.33086257960005
  H   4.51642256971041     -2.82553229481614      0.14468458788687
