22
Coordinates from ORCA-job 18555optt
  Br  0.41227987389763      0.27349158210990     -0.29004158750597
  C   2.27908949710145      0.31711184472528     -0.43083267478457
  C   3.14486377160094      0.02576746864507      0.53965149027993
  O   2.85419449530474      0.05408038707551      1.88366349871659
  C   3.10951011889156      1.30013790127498      2.45552276621188
  O   3.77194859966279      1.38636131746449      3.43292804651356
  C   2.36034354865813      2.48813330112509      1.84572721477507
  N   1.10134435860501      2.49359058765128      1.80621160414112
  C   3.12135085643345      3.75420795333522      1.48895771250343
  N   4.14514677148396      4.15046841141265      2.10236236506993
  S   2.41780889699759      4.76638152641300      0.16923968272159
  C   2.38050581609918      3.43645148624988     -1.00461433766341
  C   3.56173564694036      2.97820940099061     -1.43268492142513
  C   3.83969942476173      1.55471808508315     -1.54733467768369
  O   2.74309938224251      0.68784486162258     -1.64701670861360
  C   4.96409697276764      1.10854085872566     -0.97636032065894
  S   4.83927661431522     -0.28874997762727      0.07042400869109
  H   0.69794179958091      1.61065710240436      2.12359208729454
  H   4.40446706526724      3.51215167315972      2.85845274064608
  H   1.46062354435529      2.87445002518654     -1.10454329639128
  H   4.44033321840988      3.59787151289579     -1.29261614586698
  H   5.83933972662275      1.73612269007647     -0.88568854697126
