25
Coordinates from ORCA-job 18559optt
  Br  2.33744380697901     -1.75991145576467     -2.18568323787280
  C   2.65481828393629     -0.54067405020996     -0.80980608711681
  C   1.79248831286543      0.46699121183458     -0.53022699824166
  O   0.70954012593373      0.72877874641382     -1.28216711300709
  C   0.01171172903525      1.92670967613824     -0.98128535506146
  O   0.83055272435606      3.06113242449620     -1.14007591829775
  C   1.23940703339099      3.73720407032019     -0.02438331018024
  N   0.56580415625849      4.09914635000257      0.96708420285863
  C   2.68983987388525      4.18651590221941     -0.14225107922594
  O   3.01191264448419      4.93909454890686     -1.02743732878875
  N   3.58768314177453      3.75933889519422      0.80225885972671
  C   3.42537892537375      2.69001040002746      1.77638948167268
  C   3.14957101403374      1.40202617001369      1.03471847920219
  N   4.10406896369177      0.48639528265361      0.78776750151038
  C   3.89910453631774     -0.63978475813445     -0.05718093932663
  N   4.73359246556737     -1.58637894782201     -0.18606429266229
  N   1.98802029894776      1.33836872295684      0.49471146316818
  H   -0.38657382930758      1.87975978664146      0.03228767089594
  H   -0.77776692830413      1.97166167159279     -1.72387932735185
  H   -0.41605805861046      3.83361039080922      0.90576057280620
  H   4.52013166216303      4.10244101423558      0.62297152396231
  H   2.57063278634307      2.89717022105143      2.41911439578799
  H   4.32741991673213      2.64793875352963      2.38458716984369
  H   5.01459941053924      0.58030739808213      1.21367057197309
  H   5.55967700361327     -1.46885242518884      0.39511909372527
