20
Coordinates from ORCA-job 18560optt
  Br  1.38904416056601      0.01846647812708     -1.39310756255873
  C   3.12940269156879      0.09674825404119     -0.70804233412792
  C   3.74047736097607      1.23398116198550     -0.41476697903021
  O   3.24396633822006      2.49389653700844     -0.47289302036609
  C   4.17090644308895      3.35505291953470      0.06073930886517
  O   3.99464605331950      4.51415556326255      0.19358824754510
  C   5.40027613845025      2.54315861050892      0.41788292802943
  N   6.45988412781868      2.95690570021413      0.94927535200583
  N   5.07389400146102      1.25858847075640      0.01790968166995
  C   5.87373203656524      0.14571629698488     -0.31947978915561
  Br  7.70145481220110      0.42707850886606     -0.57575882869151
  C   5.24275703247504     -1.00137735026681     -0.60349319516973
  Br  6.13136030157989     -2.54468707879519     -1.21396838773002
  N   3.84680730679067     -1.10275093954552     -0.53971611745309
  C   3.26831107920230     -2.11669398568772      0.34233847620830
  C   2.60111292023510     -3.19709231727274     -0.39949594404494
  N   2.07452744150051     -4.05067198859007     -0.95162868888470
  H   6.39148003487715      3.96408497109123      1.09749935253332
  H   2.54071503144429     -1.65443951465230      1.01200226325755
  H   4.05524468765931     -2.55712029757075      0.95511523709789
