22
Coordinates from ORCA-job 18567optt
  Br  1.06146397634580     -0.25188594128397      0.00729554457476
  C   2.93023246146645     -0.09451230366143     -0.07131971578989
  C   3.70385707750628     -1.19642333706185     -0.12602186791744
  O   3.04791144954078     -2.40454456090128     -0.15075326125185
  C   3.67453548907607     -3.57988418240403     -0.00219504317243
  O   3.05514732043918     -4.59073993912531      0.07580981750983
  C   5.18569247709956     -3.56702620543989      0.02149334071545
  N   5.84310078076055     -4.62438683516320      0.21509439109587
  N   5.81452402306514     -2.35755246565797     -0.24099854799175
  C   7.25925544870795     -2.40327030219208     -0.28732884228269
  C   7.87597836347105     -2.22065766425885      1.08688129747744
  O   7.23025027254151     -2.02234290306136      2.07157903648018
  C   5.14875622715450     -1.14357907241438     -0.17112160624433
  C   5.83454587104287      0.03383244246760     -0.15693533231406
  C   5.27742280475795      1.35969145806097     -0.13316326207753
  O   5.91447167443370      2.38303909691464     -0.14161068034357
  S   3.48927077213171      1.52802076473587     -0.07391890560422
  H   5.20035301636370     -5.40510405154049      0.34161893038934
  H   7.64554655282297     -1.65118498243849     -0.97625675595027
  H   7.55959458544883     -3.38237790404332     -0.66035247977724
  H   8.97874757771513     -2.28799017127557      1.11574328517479
  H   6.91334177810821      0.04487905974442     -0.13753934270038
