20
Coordinates from ORCA-job 18564optt
  Br  1.08076821044895     -0.22279003524775      0.09234122347751
  C   2.95146678914730     -0.10100099739647      0.09005297991133
  C   3.71311082714770     -1.21487023140572      0.08770871706213
  O   3.06270197834655     -2.41064741208134      0.08646629472689
  C   3.72997377852297     -3.59838151224026      0.08468524290954
  O   3.10765165408247     -4.60911438241848      0.08373894487984
  C   5.24554357095590     -3.53137324560542      0.08403382690262
  N   5.91835388794250     -4.60032495166390      0.08261670005725
  N   5.87401044804780     -2.29576424368438      0.08505225180774
  C   5.16401973266864     -1.22251386460444      0.08673563413614
  C   5.86283181129620      0.07020309782663      0.08778398507390
  C   7.28973120935286      0.01323542636603      0.08696797133349
  C   8.48539920742089     -0.05372694679468      0.08632151421671
  C   5.22446901557375      1.26966367508150      0.08936915938589
  S   3.52130611473904      1.51954910628367      0.09128406810509
  C   5.97176810293012      2.56383983869572      0.08962556924243
  O   5.40430034093325      3.62076047133255      0.09049893745365
  H   5.28024916638574     -5.39824712528139      0.08204949009044
  H   9.54727174661334     -0.12955119020615      0.08581347528831
  H   7.06707240744397      2.47705452304431      0.08885401393910
