21
Coordinates from ORCA-job 18562optt
  Br  1.04769745781735      0.19581524090388      0.39240685482747
  C   2.91205787771760      0.17085935119618      0.18295535670036
  C   3.60581507086479      1.32354356316935      0.06626956065767
  O   3.01322142239027      2.52957460580248      0.12558494120264
  C   3.68635981231780      3.47785893145376     -0.66786775842624
  O   4.97547565785868      3.67921233533886     -0.15755310555157
  C   5.68191611190031      2.55595646823369      0.13851041434528
  N   6.81998863783582      2.55781453527196      0.64106116358248
  N   4.97663306448637      1.34027129249248     -0.12720462692372
  C   5.72459123578790      0.14315805674361     -0.39926459226151
  O   6.86109030620627      0.17503334759786     -0.78396659876968
  C   4.96377732671409     -1.06663895797789     -0.17124413541689
  C   3.63513948880856     -1.05823766745249      0.10950299308677
  S   2.87685669358500     -2.60604097186912      0.30769586378748
  C   4.35569382189116     -3.57132571358787      0.03091212502063
  N   4.43371773925309     -4.82489494306985      0.06219629242112
  S   5.78347000828204     -2.59295051219788     -0.31772067833959
  H   3.15157733318967      4.41675181132627     -0.58242593788129
  H   3.73249137771422      3.12709506393616     -1.70237972464896
  H   7.16562264191516      3.50885428011114      0.74633596625530
  H   3.55280691346380     -5.28771011742258      0.27119562633226
