24
Coordinates from ORCA-job 18576optt
  Br  1.08343453419412     -0.16323190243459     -0.96935379235474
  C   2.91908004456736     -0.11522994255745     -0.55955243897007
  C   3.54865619198344     -1.24750019726057     -0.05706517178392
  O   2.76767781720543     -2.35380956068976      0.20512347477586
  C   3.12917859391786     -3.60541398065655     -0.16309443352308
  O   2.40889042933721     -4.52048225219235      0.07134254803584
  C   4.45065187324499     -3.79546236882287     -0.89819784940708
  N   4.52169101065536     -4.30946022787225     -2.03648836870850
  O   5.59031629781077     -3.50576845092197     -0.23260532395373
  C   5.60644182211318     -2.46477833791232      0.74138323733133
  C   5.11834349532789     -2.97885244532918      2.11047727783864
  C   5.35732135666704     -1.96034163940331      3.12976861352738
  N   5.56639907429906     -1.13449934415577      3.89529572599251
  C   4.90819439164567     -1.22770897996841      0.23907722982619
  C   5.62444383229210     -0.05666488118324      0.03110216508660
  C   4.99789493138179      1.07795588226041     -0.45800465232186
  C   3.64542576338917      1.04873499644824     -0.75689935707498
  H   3.60104788092902     -4.57420455975881     -2.37949392085682
  H   6.66402657344139     -2.22934199504808      0.84722657550341
  H   5.67908606903484     -3.87947816994909      2.36312088065457
  H   4.05735152369222     -3.22934483421183      2.11576532574334
  H   6.68176541492182     -0.03971557922314      0.26304560338393
  H   5.56211064123673      1.98735876507108     -0.61097020506166
  H   3.14457043671149      1.92424000577181     -1.14600314368317
