21
Coordinates from ORCA-job 18571optt
  Br  1.17728649427748      1.77528412255379      0.52888795921784
  C   2.77827666824783      0.80301384014015      0.29728586202925
  C   2.73548391214215     -0.57955134798789      0.40589840094679
  O   1.59966366149478     -1.25309961614545      0.76006380968508
  C   1.04467839937228     -2.00918797214851     -0.27830644038280
  O   2.04066517476651     -2.80917730655232     -0.89438295372176
  C   2.88750275582243     -3.43982260759535     -0.03696789269760
  N   2.83885979904741     -4.61994380133917      0.35564425809280
  O   3.96389275937148     -2.67469781554061      0.32301913247481
  C   3.90721090492702     -1.32395051699308      0.20549684511451
  C   5.05193611550510     -0.61128063374972     -0.05158033350697
  N   6.37416609699872     -0.91744491141547     -0.28448523822386
  C   7.09103725495484      0.24804701900651     -0.47700450558419
  O   8.24855439985206      0.38667971798340     -0.69768087363532
  O   6.19022896697361      1.29238817169068     -0.36622721857180
  C   4.95797428876536      0.77602762339948     -0.10653547061063
  N   3.88476269374846      1.49329301082232      0.04648474197943
  H   0.64758278940851     -1.37788572435806     -1.07333460717408
  H   0.27511159042626     -2.62902987622715      0.17973289364608
  H   2.02561364494779     -5.09053470309001     -0.03081956289476
  H   6.80351162894986     -1.82712667245352     -0.29918880618285
