21
Coordinates from ORCA-job 18580optt
  Br  1.55474582769049     -0.86707712449691     -1.49611004913895
  C   2.75635766147973      0.10856317273307     -0.47437059677501
  C   2.40133151947807      1.07633762803910      0.37151991917009
  O   1.08798880061939      1.36884263719318      0.63149307084225
  C   0.37686922177706      2.15089974887687     -0.23051580196093
  O   -0.78951810156881      2.28722994684517     -0.09087589450627
  C   1.18055359094578      2.89121420679635     -1.28534245289154
  N   1.04516108710460      2.57600687821304     -2.49129384282203
  S   2.19928597382075      4.21403028746199     -0.66687010532208
  C   1.71773832447467      4.26031616557385      1.08155637303153
  N   2.30913120006850      3.67914832169375      2.02424474469799
  C   3.39967511450533      2.83096490259398      1.87755483761970
  C   3.44865335632453      1.71485059746840      1.14538791484178
  O   4.62698058114641      0.98873756931613      1.21447506077972
  C   4.99743199551842      0.11697347781114      0.25046677890915
  N   6.12891224714199     -0.39189271261844      0.15254047516870
  O   4.04869885585603     -0.23337533428161     -0.66980396212134
  H   1.58204587155490      3.16598363082608     -3.12712874099806
  H   0.86551754965573      4.89681289411721      1.30116549555652
  H   4.24784035894522      3.06241574224397      2.51012810561960
  H   6.75159896346118     -0.03098263640634      0.86877867029918
