22
Coordinates from ORCA-job 18584optt
  Br  3.88544127349380     -1.34183692903832     -0.60509851034646
  C   2.72802690981879     -0.02607176583198     -1.33457804030941
  C   3.26968836300011      0.91878692594890     -2.19586192432530
  O   4.52681519389982      1.35568352304694     -1.86425684134821
  C   4.50304588747465      1.72505446737728     -0.50377016779894
  O   5.46615666238369      2.16890255312630     -0.00073144981028
  C   3.10188603329754      1.61575333553776      0.31301710868110
  O   3.07594068127033      2.16009366493396      1.36670719557358
  C   2.01033909124095      0.81012386398995     -0.34579415532934
  C   0.73215206912583      1.18012142940687     -0.50425154751640
  N   0.29484229062665      2.44963849616304     -0.15814164270714
  C   -0.45644808596071      3.07660067103728     -0.96193115576923
  C   -1.05823162681788      2.61740441616254     -2.27169569966675
  N   -2.30169205531531      2.49454795613846     -2.42609558192144
  S   -0.07233998332285      2.52763103696660     -3.78233840360675
  C   1.20875122108319      1.41284542749799     -3.31205252139867
  C   2.44593035807236      1.80135978328976     -2.96790237138659
  H   0.06904145071414      0.53378172735194     -1.07511051735860
  H   -0.76935157972346      4.08136426492932     -0.67742135632274
  H   -2.81087369649451      2.70296248908104     -1.56317898699948
  H   0.94573994690745      0.36245392323549     -3.27755795562033
  H   2.78113959522539      2.82379873964886     -3.10295547471259
