24
Coordinates from ORCA-job 18581optt
  Br  4.78932838037023     -0.47064912935939      2.49829753205371
  C   5.37020182975163     -0.38552492202093      0.72769353281598
  C   6.63946654714687     -0.17126089175494      0.33248016751718
  O   6.83040242451246      0.01805925122967     -1.02602580743930
  C   6.14589833853713     -0.80670863298386     -1.88792467794774
  O   6.39883417957388     -0.83254075014407     -3.04484957581752
  C   5.18307340444531     -1.61212997807018     -1.09386069816103
  O   4.46034460624071     -0.78563270397170     -0.20947087930008
  C   5.45206212239075     -2.87463179069568     -0.77594214655576
  C   6.67785294838826     -3.54763657078694     -1.23318765378098
  C   7.52433799663567     -3.90465241133409     -0.26166115544577
  N   8.86325665118122     -4.25532362910883     -0.43115814830104
  C   9.79997827997888     -3.60680455771521      0.12078652929706
  C   9.68254202502679     -2.32063260440636      0.91262928276411
  N   10.40158535535885     -2.23703885604459      1.95270075974170
  C   8.74432686986567     -1.32523883592219      0.35695008635758
  C   7.80226190113377     -0.67682329338124      1.05172997299974
  H   4.91302759934805     -3.30203412176228      0.06597930179833
  H   6.99851688042016     -3.48188505571890     -2.26538553361255
  H   7.17562631478658     -3.91558664361251      0.77041870087737
  H   10.81094451324868     -4.00236807700169      0.04208386876050
  H   10.27560446858631     -1.33538947638075      2.41661104411041
  H   8.71565200164279     -1.27834717284529     -0.72591437867507
  H   7.72587436142919     -0.76321914620801      2.12901987594317
