20
Coordinates from ORCA-job 18583optt
  Br  5.33207739292428      0.11774677072196     -3.80799909736552
  C   5.72783462509662      1.36470290952003     -2.48129523779581
  C   5.78992718694927      2.67866139594416     -2.69985092051037
  O   6.04523522895863      3.51666927705871     -1.63434052168075
  C   6.77084746264575      3.03419609580301     -0.59157016454393
  O   7.07248101618337      3.70658605100989      0.33251766244790
  C   7.14079952632766      1.56804424427131     -0.75452321005328
  O   6.07680918401072      0.83699778617092     -1.26432159273672
  N   8.25696006389612      1.05505481628835     -0.56513669106938
  C   9.41317142810212      1.88641017964145     -0.27852993611448
  O   10.07618907952923      1.72784144092972      0.69295559410379
  C   9.54456494374671      2.94588393902661     -1.33642178532443
  C   9.29841591690223      2.67473430970639     -2.61881532658931
  N   8.48153743604144      3.56949227182120     -3.33864372404734
  C   7.65013049273335      2.94919410465849     -4.07522544200878
  C   6.17978658256519      3.34137630024390     -4.03582497109619
  O   5.49520221124046      3.97134495698133     -4.76622290388059
  H   9.45846724462243      3.96246330879570     -0.96936930243267
  H   9.39009829637953      1.65901068905858     -3.00501101922957
  H   7.78746468114476      1.89658915234827     -4.36037141007253
