19
Coordinates from ORCA-job 18585optt
  Br  1.62632257711230     -0.70181816513535      0.55903609421687
  C   3.39969545390832     -0.23694008140525      0.29809293019124
  C   3.86637557612023      0.97069270709904     -0.00548322602960
  O   3.12455915838382      2.10630633252345     -0.17938281497711
  C   3.96463059235983      3.19827678718431     -0.26187179414431
  O   3.57639417286977      4.30066227963559     -0.40741814214127
  C   5.42765133771568      2.68255464832108     -0.13495626132940
  O   6.38775252249268      3.38801699548251     -0.16670323214854
  C   5.27951062363149      1.22677364452958     -0.00711943289476
  C   6.16521591456966      0.22249783684670      0.21565076585575
  N   7.45533250330766      0.44424591110968      0.62221547469604
  C   8.42174819674796     -0.38501906078667      0.50898732712311
  N   8.52718767066813     -1.54414010243455     -0.22464493417371
  C   7.51848064001118     -2.30701751950961     -0.42682661154582
  N   6.21697252723192     -2.24233230043786      0.00451471538954
  C   5.60276312516048     -1.14228824074260      0.22093880850881
  O   4.27911823438098     -1.27059434101596      0.45678949431694
  H   9.34174966269318     -0.10844948596274      1.01717421738547
  H   7.70553951063465     -3.19542784530136     -1.02499337829926
