20
Coordinates from ORCA-job 18595optt
  Br  1.23454585400296      0.07759185204964     -0.15990892723874
  C   3.09036346725297     -0.02871906312186     -0.00824356868147
  C   3.72604357077045     -1.22064252626686      0.03517329552074
  O   3.04594395463925     -2.38057268341933     -0.00951315030452
  C   3.66493849451761     -3.61102089778054      0.03377133636214
  O   2.99916740359939     -4.58381292616928     -0.00661697948652
  C   5.20593874180208     -3.64536915320133      0.13896296015622
  O   5.73871307161567     -4.71958331150363      0.16850641240780
  C   5.88444990969503     -2.36424860038317      0.19826117532473
  Br  7.74469967970607     -2.33686921944964      0.35648149374662
  C   5.15615621474130     -1.22442116249350      0.14086560660659
  O   5.76550993430456     -0.01857498979918      0.19273514019593
  C   5.03702851652879      1.11820081269697      0.14845368891520
  C   5.89274951211848      2.33460001349486      0.18779175520854
  C   6.51943611050716      2.61688723817405     -1.16712588866676
  O   6.32526406026835      1.95001045840242     -2.13855954703785
  N   3.77196004420559      1.16148573207069      0.05697416780666
  H   6.69407116372242      2.22088598570324      0.92229707328991
  H   5.28479138791213      3.19351578300678      0.47465602151158
  H   7.17322890808967      3.50665665798967     -1.19496206563681
