26
Coordinates from ORCA-job 18598optt
  Br  0.85258353894943      0.36298642658788     -0.11021446535740
  C   2.71274550267756      0.18715174489383     -0.20901447491645
  C   3.31761446578785     -1.03317427044504     -0.09285651050744
  O   2.51832243518065     -2.13593952051973     -0.03443713656965
  C   2.53992618386717     -2.93909847996482      1.12037951417348
  O   3.82403016501899     -3.48094113656385      1.29768046005233
  C   4.24692962568997     -4.20662420643197      0.20445976392490
  O   3.64594753594557     -5.14320772164065     -0.21118594907424
  C   5.50552157175783     -3.62713057608348     -0.38813135139193
  C   5.78418928498300     -2.22054413983383      0.11069803878925
  N   7.02581435382333     -1.68911640756381     -0.47073242854324
  C   6.91719817229315     -0.23039766774990     -0.40570901217177
  C   5.43173988982564      0.01493574312791     -0.40990969720956
  N   4.83292546506721      1.21437903734670     -0.55345509824410
  C   3.45438267862940      1.41895589374813     -0.45280704355895
  O   2.99022900374917      2.53024861214284     -0.58135713540837
  C   4.74562403787428     -1.12745009041745     -0.16551073023046
  H   1.79864173934302     -3.71553497227995      0.94564316710412
  H   2.32270630049311     -2.35508825896804      2.01356151926168
  H   5.38651806178732     -3.66086999644208     -1.47375143899421
  H   6.34754759837332     -4.27579815801064     -0.13408684246130
  H   5.92513504949056     -2.27595708678827      1.19374303379263
  H   7.05873409981180     -1.96040275618643     -1.44864704835392
  H   7.44314011825815      0.24991260601224     -1.23092669359899
  H   7.34934648512688      0.14123309114550      0.52989098081956
  H   5.36850663619557      2.05047229088493     -0.74432342132594
