23
Coordinates from ORCA-job 18597optt
  Br  1.20901247348690      0.01957740563457      0.34545214925691
  C   3.06872330073137      0.00937033478424      0.16866940764792
  C   3.74649373127973     -1.16380791469760      0.11713303019039
  O   3.09516376391533     -2.32843679204490      0.19115050530590
  C   3.73602102150331     -3.56712562489248      0.16311088578356
  O   3.06461481823864     -4.53162471966713      0.24714258857813
  C   5.27207725847096     -3.57440274514137      0.02425647670944
  O   5.81503116361598     -4.65300796070510      0.00582565474063
  C   5.91536997011086     -2.30149043381480     -0.06954038179616
  C   5.17892100875447     -1.15177250132690     -0.02332534673386
  N   5.72378739049030      0.09361553627986     -0.10454682305585
  N   5.08492747065476      1.26292334174257     -0.06062062220729
  C   3.79836401159626      1.24769613987663      0.07115370357495
  C   3.11986485401029      2.58935782585171      0.13751580602978
  N   2.64331072615934      2.87385469984180      1.47547881213584
  C   1.37211431213652      3.28747589041594      1.72519738020322
  O   0.51382717849598      3.41580297323715      0.88809451805662
  H   6.99206072672659     -2.28016747262860     -0.17512114406838
  H   6.72280397737555      0.17906542558685     -0.21552425688804
  H   2.24543513006271      2.61919395458367     -0.51266144612143
  H   3.83692777354858      3.33981260582849     -0.19511745864290
  H   3.30262762650873      2.86892752586444      2.23668737721078
  H   1.19952031212681      3.49016250539096      2.79358918408981
