21
Coordinates from ORCA-job 18590optt
  Br  1.36722954645515      0.54694524342072     -0.15568743860535
  C   3.22217570851191      0.33152527607964     -0.18920593489716
  C   3.78833473214623     -0.92815754151098     -0.21695654425269
  O   2.98608905895057     -2.03328433567189     -0.28463395682387
  C   3.51638953366998     -3.25527338893910      0.00749515496084
  O   2.83487846653310     -4.22442743808441     -0.03629097421452
  C   4.97373729470544     -3.24327264964334      0.41789699212410
  O   5.73434868530815     -2.27047382064573     -0.27097043066707
  C   5.18113068783660     -1.03498126012492     -0.24749400822507
  N   5.98639722239751     -0.00461853185251     -0.29259101623273
  C   5.44652043350783      1.21116600381407     -0.28581809407527
  C   4.08412760744686      1.42415542619771     -0.22184853229304
  O   3.59528515355623      2.71295566153926     -0.26993464700532
  C   3.11964784470484      3.22905178583647      0.89490005060474
  O   3.16396884721370      2.67173918196196      1.94564990850159
  C   2.56191670581184      4.54765274404611      0.66977669236501
  C   2.09487579565795      5.63800684850458      0.52215855265244
  H   5.40056792369685     -4.21531548740973      0.19380973039720
  H   5.01972227915576     -3.06809357761519      1.49909357583236
  H   6.11589192588378      2.06174733582409     -0.33048943613595
  H   1.67676454684971      6.60895252427320      0.39214035598976
