26
Coordinates from ORCA-job 18605optt
  Br  1.21488363405090      0.53971623276506     -0.29797285775301
  C   3.05108534461132      0.16794537843460     -0.16113857914492
  C   3.53378309219535     -1.11703949207256     -0.39312052218366
  O   2.63470203144426     -2.02709707598820     -0.85560219021699
  C   2.50896470023741     -3.36440360959656     -0.60657959706595
  O   1.87712707539520     -4.01858806059596     -1.37128808750029
  C   3.00278416420530     -3.96649026043099      0.70121987693517
  O   3.98642575507367     -3.27919411506637      1.41284339147413
  C   5.29831710516916     -3.44404742307134      0.93040176426947
  C   5.53488521248763     -2.68817672575407     -0.37489483304553
  O   4.97496313604046     -3.47434553579317     -1.42171231163959
  C   5.13212262141780     -2.98559054935019     -2.68929178938919
  N   4.42552214848912     -3.32024059230707     -3.66153608064224
  C   4.90931392653479     -1.32515931323222     -0.27875626677134
  C   5.70071181881164     -0.23462162083741      0.05599979344567
  N   5.24596518654397      0.99116594253733      0.27869540685434
  C   3.93866322466943      1.18040666707573      0.17518278015011
  H   3.30989404327468     -4.98654010991168      0.45477560447203
  H   2.12066362804003     -4.01919677434889      1.34274739114695
  H   5.52886794085053     -4.50384792260554      0.77851333085628
  H   5.95544466236869     -3.03646339463837      1.69749258014620
  H   6.61402580111486     -2.58529056003742     -0.53264162573439
  H   5.95543110303505     -2.27755443682917     -2.79368661598045
  H   3.68171616081933     -3.96297880639376     -3.38262254037761
  H   6.77440833718455     -0.37330075946615      0.14601736208822
  H   3.56232814593482      2.17993291751438      0.35795461560657
