19
Coordinates from ORCA-job 18607optt
  Br  1.46253104694776     -0.16025005370645     -1.23629451182176
  C   3.12741334975140     -0.42152155806029     -0.45879301335265
  C   3.92401620756717     -1.47535964704919     -0.74667201666991
  O   3.54120890426939     -2.39190368353587     -1.69449524304167
  C   3.41890684119730     -3.71329119125913     -1.37399968429206
  O   2.76134188186251     -4.43706938465219     -2.03295150296818
  C   4.28889820988903     -4.13536917472149     -0.17724451010667
  O   5.64675085463306     -3.88449441011145     -0.49243653831346
  C   6.15683519559657     -2.61586394074642     -0.39849602445562
  N   7.36113825308908     -2.36282748042641     -0.59617799251569
  C   5.19424433329381     -1.50030153593395     -0.08808421228645
  N   5.58298845147761     -0.61007522411330      0.75688875049466
  C   4.77498265474540      0.46838622988323      1.04430086823251
  O   5.01327080167994      1.36362842645377      1.77435284346798
  O   3.50104443275032      0.50694546814288      0.39155186558575
  C   4.14349519436361     -5.56679219873282      0.08785347163052
  N   4.02340582771028     -6.67706280928956      0.33118323559646
  H   3.98135396721380     -3.59374097687955      0.72396084672949
  H   7.89517359196192     -3.20403685526181     -0.81644663191323
