21
Coordinates from ORCA-job 18608optt
  Br  1.50735050917488     -1.51841916267830     -1.64190459421490
  C   2.93997694873219     -0.64447438132436     -0.84201878116519
  C   2.89623637342973      0.64753588026468     -0.50897604808033
  O   1.79949977462385      1.42661662348275     -0.77255674975023
  C   1.22059345999487      2.01100439692717      0.32725698937317
  O   0.94327042824308      1.45818511671024      1.33206313143334
  C   1.08762945673861      3.50804795591710      0.04167648834534
  O   0.11706171612315      4.14817880658161      0.30480441906445
  C   2.30811336656792      4.10022581602222     -0.62362426325145
  N   3.49560802270722      3.70286177193819     -0.49527092994176
  C   4.11522389968479      2.68876662811973      0.20632482794556
  C   3.99178364269958      1.34367441129907      0.14788918056144
  C   5.05935292106364      0.48425339380187      0.73928663091114
  N   5.91525054448656      0.78037045116993      1.62297771556485
  N   5.11324085984250     -0.79550752102949      0.20100302743653
  C   4.15727909622447     -1.44767308931265     -0.54720122493751
  O   4.29717912707638     -2.59126039903982     -0.89390970265833
  H   2.10999933214709      4.96917053968353     -1.24988289955879
  H   4.96994185465095      3.07918409449764      0.74884655796376
  H   5.80892448705054      1.72477267947990      1.97729442607267
  H   5.87848417873794     -1.37251401251101      0.52692179888626
