21
Coordinates from ORCA-job 18601optt
  Br  1.06160220103048     -0.05456508435483     -0.40266839064698
  C   2.92389974228457     -0.04276386820973     -0.12743931972927
  C   3.59043414070392     -1.24223908204586      0.04055909908021
  O   2.96264043547631     -2.45007050452089     -0.01633317180971
  C   3.82109550724148     -3.48947022622292     -0.40295194068952
  O   4.20058737501384     -3.17774957791351     -1.74508816144846
  C   5.04241768558353     -4.01857140560222     -2.38523429724531
  O   5.50705744727739     -5.00742692646012     -1.91975500495515
  C   3.06664453080790     -4.73746182583023     -0.32293088592632
  C   2.44018245804875     -5.75009218116149     -0.24347534130762
  C   5.06360560480831     -3.47999641317841      0.50654518798894
  N   5.55078093433667     -4.41319186508626      1.16575294775138
  O   5.68608404397721     -2.25831959287574      0.53792246725400
  C   4.95627222124178     -1.14756315394379      0.28724795187323
  N   5.59865710534684     -0.00347173224396      0.30628798832756
  C   4.86043062819485      1.08141278822536      0.10791545573654
  N   3.54907904705926      1.11693836517075     -0.09283303073912
  H   5.22076299024721     -3.63604080657213     -3.39545090275224
  H   1.87476539467441     -6.65072068323064     -0.18262774448843
  H   5.04534002809741     -5.28123519346414      0.99878506628793
  H   5.37966047854780      2.03159896952079      0.11577202743835
