23
Coordinates from ORCA-job 18612optt
  Br  0.89757403292054     -0.44756420725158      0.48510702186465
  C   2.73499833939664     -0.32005442732016      0.12369844758039
  C   3.53727541736619     -1.45652744134520      0.10038419406097
  O   2.96531433410317     -2.66394530574846      0.31243591000269
  C   3.29975464596426     -3.64347176176160     -0.64532458284382
  O   2.19327858321619     -4.48040151579318     -0.79237611612014
  C   1.17477289287511     -3.95599344867874     -1.51807484094193
  O   1.20068475322928     -2.89343107894920     -2.04745142797255
  C   4.47769478025531     -4.46206893985594     -0.17205387184293
  N   4.52019518070428     -5.71428337621016     -0.04650992884702
  N   5.61734639117071     -3.72033436473571      0.10481292887332
  C   5.94523969754107     -2.37937104451485      0.00709030068484
  O   7.11036801439698     -2.06945818759786      0.09390109872120
  C   4.90244162214871     -1.31044259791931     -0.13238429958529
  C   5.37564883423283     -0.01998352521479     -0.38759647487187
  N   4.61060137667908      1.05827783904824     -0.40875866807995
  C   3.31670455793817      0.90827082770905     -0.14069824205082
  H   3.52874472956708     -3.15348636089284     -1.59668805910858
  H   0.34222048041738     -4.66539761805265     -1.54052545856447
  H   3.62592591178142     -6.13447600079070     -0.28462389941072
  H   6.42658840430696     -4.29573449647718      0.30858591997927
  H   6.43464195694544      0.11286933296901     -0.56794604849633
  H   2.70198506284315      1.80100769938383     -0.14500390303093
