22
Coordinates from ORCA-job 18616optt
  Br  1.12575736850057      0.21156393170630      0.15217349525572
  C   2.97873223036123      0.05063803858912      0.04184620723978
  C   3.60099419786795     -1.06908226410334     -0.35175074944996
  O   2.88559738707540     -2.12519999500293     -0.87441925795687
  C   2.20927437482587     -3.04466892192372     -0.09181973070249
  O   1.14462461579454     -3.43428395105586     -0.42352561663303
  C   2.96940404605865     -3.59622619497057      1.11029240341984
  O   4.32943326790182     -3.22439749833408      1.04735599168114
  C   4.93170037172360     -3.55282501233206     -0.13310033455725
  O   4.75150012887917     -4.58521816868745     -0.69466388470830
  C   5.76441633981587     -2.39577023855036     -0.62349614795466
  C   5.05704024460430     -1.09117930573178     -0.36010052697933
  C   5.70070282798118      0.06021743745103     -0.09359610145601
  Br  7.57971401828071      0.18046294420772     -0.12322686451130
  C   4.99549057565329      1.30597013688358      0.24200129449402
  N   5.43434073418785      2.46220139719489      0.44345768659561
  O   3.62660289351443      1.15933817635726      0.39855469977496
  H   2.83108652346660     -4.67695847076154      1.10290387032252
  H   2.56123764506709     -3.18074576882957      2.03007456307357
  H   5.96603067017614     -2.54713470880198     -1.68400180956347
  H   6.71996258836614     -2.40110924548650     -0.09679882301118
  H   6.44335694989753      2.50040768218188      0.34383963562670
