25
Coordinates from ORCA-job 18620optt
  Br  1.08811519167474      1.47207396503166      2.39551073202292
  C   2.07970374518605      0.97079928953706      0.87683701802043
  C   3.10527550888211      1.77543889580592      0.41943730286239
  O   3.07257054704831      3.11017733742471      0.78916064944483
  C   2.47323301538880      3.86163514032689     -0.21335289921710
  O   2.89089662412709      3.88434863298883     -1.32465126484078
  C   1.21634238972327      4.60199814699312      0.22531777384969
  O   0.09460719267355      3.75257109217305      0.37275664692088
  C   -0.40562158570245      3.09599172413098     -0.75370923324993
  O   0.09416364696913      1.76593614538065     -0.81510921406013
  C   -0.61548068554903      0.77496832874312     -0.21033581903035
  O   -1.77200840954091      0.86247339955318      0.06521925846712
  C   0.23849598499750     -0.47545211121762      0.06596590812724
  C   1.69131309612311     -0.10266117483345      0.08549388262492
  C   2.58300551872029     -0.49877861950638     -0.90469530835812
  N   3.72535109946957      0.12646475673314     -1.17556033031001
  C   3.94537517210372      1.28828825298006     -0.57371262717561
  H   1.02436579294745      5.37326510166530     -0.52355810125026
  H   1.37530755987594      5.05476346346907      1.20256096243387
  H   -0.08113093855652      3.57552266167595     -1.67771970249895
  H   -1.48846479677244      3.06784961864482     -0.66048844860221
  H   0.03692261874958     -1.20077964343066     -0.72434722270569
  H   -0.13530040883487     -0.88706924486457      1.00266666364289
  H   2.33669309906376     -1.34992752290488     -1.53188437972284
  H   4.78626902123223      1.88510236350002     -0.90480224739519
