22
Coordinates from ORCA-job 18626optt
  Br  1.05495722423285      0.02485491805018     -0.43417970247178
  C   2.91216234822116      0.07971393158423     -0.23136715014735
  C   3.58681618552772      1.24181428054089     -0.05995325106067
  O   2.95572625578088      2.42450330244621     -0.07196739913280
  C   3.66626670274378      3.41533960449011      0.62887615046942
  O   4.91430507445139      3.60681601772599      0.02220680373092
  C   5.66085926271121      2.49978865827730     -0.16884807413724
  O   6.76388905314408      2.55147767901619     -0.58105427383460
  N   4.96210316553950      1.28257369617687      0.12198556028497
  C   5.76825546797743      0.07651382261332      0.32302391285910
  O   6.90617234813032      0.16072102064067      0.69369705386515
  C   5.03157928076667     -1.11488924423564      0.04951152704983
  C   3.70242556703167     -1.09802207795923     -0.20384004748729
  O   3.16977263464435     -2.32585113465812     -0.37757101330433
  C   4.20288156046651     -3.26969045267223     -0.23406598688085
  N   4.02215533222002     -4.49509138111189     -0.35271663471398
  C   5.49177932509236     -2.53627300609359      0.07498037602391
  H   3.79201331603492      3.11326875411333      1.67181007967307
  H   3.11270166643582      4.34215524814823      0.53887686573098
  H   3.05215379468115     -4.72195638235642     -0.56515523398007
  H   6.25031207572180     -2.76656948181117     -0.67424299343038
  H   5.88471235844436     -2.84819777292521      1.04399343089398
