22
Coordinates from ORCA-job 18629optt
  Br  0.91885402454491     -0.25051072081730     -0.07369776113771
  C   2.78029708736610     -0.08517988309297     -0.04485554702808
  C   3.37221818800914      1.11615524862102      0.03220039093877
  O   2.86291037909711      2.38763969760223      0.09209857602708
  C   3.98358192134658      3.13857466581172      0.08406593838924
  O   3.78186651451194      4.45848376951645      0.19534051200418
  C   3.22339276405984      5.10253809686469     -0.88347730047225
  O   2.95674982437944      4.57990929023255     -1.90783744765950
  N   5.12021737400571      2.56355165537633      0.03660356986858
  C   4.79019780884630      1.20252487692534      0.00870705206813
  N   5.59449461691461      0.20268743906379     -0.03227593721883
  C   5.02402521490675     -1.05893820738983     -0.01238551508297
  N   5.67244909389455     -2.14624931331990      0.09928898352642
  N   3.59192362684037     -1.17378737644204     -0.13694663314160
  C   3.06604956572241     -2.51863885862866     -0.05260398573703
  C   2.81121979327768     -2.90807887302483      1.39058322540800
  O   2.82159161454541     -2.11764431285526      2.28697117619063
  H   3.09105536135976      6.15506949994806     -0.62172115191959
  H   6.66284625520196     -1.93132952030235      0.15275046408155
  H   3.79831797243105     -3.19829450834961     -0.48286948731583
  H   2.13169908175961     -2.60381307820356     -0.60877788123744
  H   2.58704191697871     -3.97666958753586      1.55983875944826
