22
Coordinates from ORCA-job 18633optt
  Br  3.75105359146986     -0.50117351322067      2.72893959111675
  C   4.43017446456027     -0.54433722020671      0.99174400043430
  C   5.58131604576173      0.02376249565978      0.66105250539972
  O   5.97650063843504     -0.10971600594291     -0.69204914168847
  C   5.71446207928681     -1.33455623465382     -1.20145848117626
  O   6.70829599967027     -1.79953282205246     -1.99377268640818
  C   7.92861802901912     -2.18275395236097     -1.39745056676465
  O   8.37498520500311     -3.25831256764720     -1.60627195530340
  N   8.49010460462856     -1.19758364144829     -0.62452877865334
  C   9.28678781838261     -1.46297728964308      0.52120738707516
  N   10.18403411525158     -2.30959731672140      0.66619262241990
  O   8.92681236267275     -0.63262213581239      1.57473547901350
  C   7.55523830612103     -0.60480821420935      1.67677301913096
  C   6.80897855295693      0.44774736683380      1.35890787069236
  N   4.66798668088107     -1.98365706324047     -0.96047026088122
  C   3.75690813704585     -1.37237831114127     -0.05239986227263
  N   2.51723381618647     -1.57961356498141     -0.04751135915125
  H   8.01380318352957     -0.30905203138491     -0.63715628151121
  H   10.37229522039110     -2.80325110790382     -0.20344938417702
  H   7.10456806219597     -1.58119826045590      1.84502941483475
  H   7.25564235748392      1.40812872687848      1.13019304958220
  H   2.26220072906630     -2.20851733634500     -0.80925618171198
