24
Coordinates from ORCA-job 18636optt
  Br  0.95090785064271      0.87825220266567      2.43457001442456
  C   2.07554008812849      0.89050673662365      0.93295852421284
  C   3.18177891513346      1.72869739321664      0.86384464665954
  O   3.34590143888672      2.70478762859496      1.79363248182992
  C   2.88494823823961      3.95901042704798      1.34544624628672
  O   1.51535071502706      4.16365916654899      1.65263328201135
  C   0.49722679016275      3.74105447749754      0.88912404497421
  O   -0.63676290659378      3.90959993164255      1.20024633474513
  O   0.90512416534325      3.13095002786061     -0.24119167159324
  C   -0.13655153991720      2.55160663760672     -1.03605109555872
  C   -0.66465391075256      1.18420306001366     -0.55328074804832
  O   -1.83675790826915      1.05563047755446     -0.34969817255539
  C   0.25943257759871     -0.04484537142275     -0.51679559828342
  C   1.68839461066276      0.32263975374221     -0.27434489882508
  N   2.52259849323513      0.29880257137341     -1.31571961333998
  C   3.68265006876835      0.92002351903109     -1.17260665064884
  N   4.01411559602453      1.70700401595310     -0.15615330092564
  H   3.06747042523943      4.07222946135069      0.27762974422413
  H   3.41198991493237      4.70592415307639      1.92791130079606
  H   -0.99153668273551      3.22221216715100     -1.07722696292660
  H   0.30755439213138      2.42092309573755     -2.02403616594832
  H   0.18534548515849     -0.51259218551151     -1.50070096432019
  H   -0.14718966719837     -0.72490812677524      0.22929422982405
  H   4.39512285015134      0.83462877942061     -1.98448500701477
