20
Coordinates from ORCA-job 18635optt
  Br  1.23930023428808      1.61899129967359      0.44289505679207
  C   2.92249768590641      0.81624052846642      0.40333065767108
  C   3.11310457712158     -0.50581549645394      0.28815241162337
  O   2.06986372157900     -1.37187895179710      0.11426350316413
  C   2.32831827079061     -2.61699274596914     -0.38539435792651
  O   1.68683307998657     -3.06665020190459     -1.27011922870072
  C   3.30606616224056     -3.56311423995992      0.36833448598553
  O   2.87234719901857     -4.48889533148747      0.95870562214907
  O   4.65092967966869     -3.39504689625995      0.22801486053668
  C   5.10876774104948     -2.12722758367910      0.09098932516457
  C   4.46938502767114     -0.95542141286071      0.19739831684942
  C   5.47902840867368      0.08458035757464      0.05468402323638
  N   5.27416843051678      1.33680857928464      0.18371206407607
  N   4.00653857652984      1.69258224980349      0.47511393310632
  C   6.78918445690549     -0.59114948310674     -0.17955244695258
  N   7.96331033105224     -0.15544947730285     -0.33677419893070
  N   6.45759804803504     -1.94962757311256     -0.15670712757031
  H   3.82770658690059      2.68225201799250      0.45792123923432
  H   7.96557017213483      0.86197098708239     -0.31868679059987
  H   7.14548160993078     -2.68415662598360     -0.14128134890833
