25
Coordinates from ORCA-job 18634optt
  Br  1.58966550371215     -1.88554062900933      0.76553591038009
  C   2.77158673488161     -0.47914430442378      0.38791218276222
  C   2.49211202964506      0.80141539310767      0.71247157967589
  O   1.30924343240257      1.14961606871416      1.32651162036555
  C   0.32077216318678      1.54111444646263      0.40836230197604
  O   0.87809967631740      2.52948693779269     -0.43077233141205
  C   0.56341622607005      3.82797784941493     -0.25105783184263
  O   -0.51433813690193      4.24070090148493      0.05453535176711
  N   1.67131808099388      4.59845961792632     -0.54849824866240
  C   2.99894487946797      4.24675251874513     -0.28123248972436
  O   3.89828792323355      4.82942501551803     -0.82214473228068
  C   3.24277712667305      3.23239151355034      0.83423483223795
  C   3.47532911153588      1.80808633175903      0.38750520813014
  C   4.60947381254079      1.46673510832808     -0.26043414495709
  C   4.90045901398556      0.09828885981141     -0.65292496309712
  N   5.90445452060243     -0.36648563512290     -1.28688965370589
  N   3.92762593062731     -0.81693535685775     -0.23661954974096
  H   -0.52532755697549      1.93078066358854      0.96924957087322
  H   0.04092462284171      0.70659475806456     -0.23482283232519
  H   1.51233192566985      5.52818059077820     -0.91007040105990
  H   2.42812836481107      3.26297819208386      1.55475597947605
  H   4.14866771884337      3.59072213606354      1.32187808258718
  H   5.34777581623494      2.22145677839549     -0.50107634362706
  H   6.55343685257405      0.37367844110034     -1.53272314750563
  H   4.11183422702637     -1.78273619727614     -0.46868595029048
