24
Coordinates from ORCA-job 18632optt
  Br  1.29287677342870     -1.66359628515322     -0.47842672417380
  C   2.43091545623898     -0.21249625046653     -0.20561221982442
  C   2.53795926742534      0.82589593341869     -1.05224605254058
  O   1.69701401074926      1.05836639561602     -2.10842732566931
  C   0.51571684043067      1.72929868146039     -1.68795383440128
  O   0.82566700525925      2.84800714701612     -0.86188274004445
  C   0.73657565811868      2.64775084768142      0.48046966495985
  O   0.11892930397397      1.75259791485487      0.98693976051539
  N   1.42445642901305      3.59567423211779      1.21381021727921
  C   2.65865695326138      4.20080989412764      0.77500901457978
  N   2.71346880443880      5.18117270830669     -0.00528804820957
  C   3.90921814203615      3.45431928075494      1.21488459079543
  C   3.74063634816264      2.06536220049893      0.64403626562886
  C   3.33202540261603      1.93456743351156     -0.63155082013995
  C   3.63506760157229      0.91862136604078      1.53613486383768
  O   3.97365745907582      0.85510436572950      2.67814243568750
  O   3.09289931751048     -0.23472833705252      0.95248238480933
  H   -0.13465145414268      1.05055448794435     -1.13943889071285
  H   0.05620044155321      2.11742043936272     -2.59016822986822
  H   1.41924875937688      3.31631500900407      2.18820476932791
  H   1.77750978252000      5.51253210511626     -0.23971017406629
  H   3.98075398175516      3.39126270865545      2.30205390635924
  H   4.78114326866125      3.98161249835980      0.83284509271524
  H   3.37305444696467      2.78257522309425     -1.30530790684470
