21
Coordinates from ORCA-job 18639optt
  Br  3.47007910001362      0.74787917042364      1.77569963427855
  C   4.44430794299290     -0.52713279084250      0.80899790396323
  C   5.77077202672645     -0.68878366511313      0.99522184623416
  O   6.42684660341812     -1.68049234007397      0.31100859887348
  C   5.88908083874750     -2.11697408792252     -0.83321138227851
  O   6.78865554758491     -2.77059368503473     -1.60846409857836
  C   8.06086291912493     -2.29943519401328     -1.81134718848075
  O   8.88159073962168     -3.02425458592144     -2.25080100303574
  S   8.38978284308703     -0.56252138039448     -1.37275647749518
  C   9.17989458478125     -1.10890628949919      0.16727447056005
  N   8.92123151337033     -0.72859065039233      1.32420055770931
  C   7.98885514285220      0.15898959145816      1.82736704911512
  C   6.64553501217053      0.14257180103271      1.79129365609097
  C   4.60392381037519     -1.98894747285938     -1.14799783861071
  C   3.71185835106159     -1.30363196858802     -0.21037540757994
  N   2.44167867706898     -1.26877218617706     -0.26674787425453
  H   9.94368124254898     -1.86588712462863     -0.00053272282701
  H   8.45113316228418      0.90678525536182      2.46250522163751
  H   6.14511433791294      0.88953968361439      2.38883865616630
  H   4.23464346089161     -2.37323155753510     -2.08702042097480
  H   2.09547214336499     -1.83261052289496     -1.04115318051316
