18
Coordinates from ORCA-job 18646optt
  Br  1.21001404279765     -0.16613025042740     -0.24479538761248
  C   3.05943330270351     -0.19075226571922     -0.02262259086606
  C   3.80921959541506     -1.33637765132235      0.11367308819501
  O   3.61640252413757     -2.69681606880314     -0.01440397666130
  C   4.86557740019683     -3.34026687218943     -0.07243724009609
  O   5.00754971085240     -4.49605028273199     -0.25502061964537
  N   5.82628938416482     -2.33831037390720      0.14667790467995
  C   7.19717622394699     -2.00520361922033     -0.06604219155062
  N   8.21308869290868     -2.69132669461787     -0.24205513418313
  O   7.25695453300411     -0.60077459478564     -0.02610788021102
  C   5.97928867353498     -0.10519939577153      0.10929395946859
  C   5.25141504982840      1.07575325135082     -0.01800567148321
  C   3.84224644090185      0.99171085328446     -0.03703894572810
  N   3.41154100264627      2.29712182185042     -0.16192151039512
  N   4.36566151767230      3.07844114361422     -0.22450177651546
  O   5.58877428433912      2.35206744702305     -0.13954821849884
  C   5.15787923355905     -1.16380550253135      0.23282133348514
  H   8.01648838739036     -3.68808094509550     -0.22896514238188
