25
Coordinates from ORCA-job 18643optt
  Br  0.70684342446040     -0.23908340660274     -0.79640379776860
  C   2.52720620147041      0.10762433413237     -0.59664581122181
  C   3.46942595965812     -0.84862016059086     -0.70215431545898
  O   3.42806561900591     -2.21211001293931     -0.75110204918272
  C   4.68355237048000     -2.71280033230115     -0.31193984658245
  O   4.86046740534614     -3.86047932425022     -0.07150136493731
  N   5.55132161063454     -1.64676258179532     -0.26044792509472
  C   6.64689073419903     -1.30338295002869      0.67197135439830
  C   8.00862583686217     -1.71439246302924      0.11409060722377
  C   8.31414589980817     -1.03549518845006     -1.14100672206584
  C   8.53594346758187     -0.45273883477725     -2.16276638021844
  C   6.49996937807983      0.26268574493046      0.88111036287618
  C   5.21131886780185      0.59623568839213      0.16118823254389
  N   4.28607583510809      1.60085677684457      0.26261343409057
  C   2.95976873442009      1.48175931659522     -0.23627199880428
  N   2.14813516739278      2.45829144450701     -0.31438952677177
  C   4.80504185726052     -0.50174255062245     -0.45741662069336
  H   6.48175012247908     -1.83384275879513      1.61155325439109
  H   8.01226906574995     -2.79563729690906     -0.03757673214200
  H   8.77863884291214     -1.48582334167631      0.85506678871910
  H   8.73844121669343      0.04825961013097     -3.07931991772882
  H   7.36627833801610      0.77537747899117      0.45735263589012
  H   6.43898682922072      0.51511618862537      1.94089646769188
  H   4.54486742260004      2.51244891949971      0.60512760377823
  H   2.55596979275858      3.33525570011882     -0.00002773293202
