24
Coordinates from ORCA-job 18648optt
  Br  1.55199174950312      0.88693956746751     -2.59026200358639
  C   1.86603651077235      0.46550824100307     -0.78495015992607
  C   3.09013176410013      1.09366638251177     -0.16263787325611
  O   4.18497203250955      0.64412446871848     -0.15751138866384
  C   2.38539786979193     -0.76044768020788      1.94358477164548
  O   3.25024011330460     -0.96507977012279      2.68468174479977
  N   1.40253673238518     -0.59120323494427      1.26938959891921
  C   1.01260314623272     -0.22064554447643     -0.01663121874580
  C   -0.44431281234780     -0.48273844118091     -0.27740356474513
  C   -1.34894220083697      0.20587693647095      0.78751184358332
  N   -1.62624108124682      1.63956999766475      0.62951055502391
  C   -0.55992465013365      2.45449204103294      0.31466803578153
  C   -0.33571952293800      3.45317469667549     -0.57948384202553
  C   1.08778143221361      3.66855154334361     -0.57506110232032
  C   1.58556856036681      2.79709506332497      0.31917384165549
  O   0.58554054685472      2.13593814805815      0.95825243369184
  O   2.83359511085865      2.27949986416690      0.50805440755299
  H   -0.63113595904269     -1.55615867647061     -0.19820140753342
  H   -0.71620793325394     -0.15998095375577     -1.28070391688303
  H   -0.90873808205448      0.04359096854606      1.77092238428085
  H   -2.31689515988894     -0.29173998578195      0.78314924782727
  H   -2.42665401285110      1.83695430266129      0.04886777592845
  H   -1.05923053018877      3.90417294404856     -1.23602518286585
  H   1.66160637588975      4.29583912124608     -1.23489498013865
