23
Coordinates from ORCA-job 18657optt
  Br  4.01904587022224      2.14965109232830     -2.52928567058591
  C   4.81476392038335      1.71245817042375     -0.88377464588346
  C   4.10826226127922      1.78207290523752      0.27301857890024
  O   4.64478955697281      1.42957743962209      1.42899705049109
  C   6.01167523905322      0.94580686522431      1.40823875467390
  O   6.31035428565302      0.16260028589938      2.24147295812404
  N   6.77215941050448      1.58282466739649      0.48746608474765
  C   6.21103365954337      1.98265965307409     -0.61403977076122
  N   6.83252752476814      2.92957586046005     -1.37568332375019
  C   7.66234107395672      3.86309752450485     -0.69380341830586
  C   7.30046566531604      5.12077130462323     -0.43729165496284
  N   6.17378747063149      5.83382188747966     -0.87100495183413
  C   4.96356728329845      5.60650284313923     -0.57298638112861
  C   4.47968111464217      4.43565573682126      0.19066513689622
  N   3.28349868777994      4.04031999564977      0.02368983827076
  C   2.92723766235951      2.70952740183873      0.40844889234675
  N   1.78787172286388      2.33778470218891      0.77344194677050
  H   6.29345093943591      3.28963864206040     -2.15151622545037
  H   8.61970308496540      3.49625132571990     -0.35514897844750
  H   8.03271036706337      5.76136337530261      0.04195784068551
  H   4.19578199342901      6.24975750623202     -0.99888755129845
  H   5.23783669564266      3.89366858315377      0.76413496631868
  H   1.14745451023553      3.13361223161965      0.80289052418320
