23
Coordinates from ORCA-job 18650optt
  Br  0.11266800482595      1.66391419170898     -2.05537625585264
  C   0.73050948842055      2.80382943125518     -0.59680129589983
  C   1.93508530989151      2.38603476238361      0.14981879397028
  O   1.93965621825158      1.37093419445234      1.01693646045327
  C   0.65635779961050      1.00257089037004      1.43951494234681
  O   0.51044852696974     -0.05974353012697      1.93951656205169
  N   -0.35435241444583      1.96869257571015      1.34069496927149
  C   -0.38947914123152      2.88254410399679      0.43250501909667
  C   -1.55455388819878      3.77741248203205      0.55054469609186
  C   -1.94312442556839      5.01929284542623      0.14585590996346
  N   -1.35789950735682      5.97607400617563     -0.64856306058597
  C   -0.18779975953516      5.61918084212302     -1.33656016961587
  C   0.83932340890786      5.20029699811436     -0.60988583816469
  C   1.61180817472618      4.02212894445351     -1.07141137890542
  C   2.70395006206736      3.41668159335115     -0.20067795997317
  C   -3.22315745807921      5.46221302217562      0.65848057646903
  N   -4.23563657102207      5.84763059062036      1.03305798093545
  H   -2.25915711331837      3.33053281394192      1.23934495722773
  H   -1.96023747361597      6.71079199846973     -0.98646799314846
  H   -0.25932045032278      5.46404962525762     -2.40943662541289
  H   0.82516517288134      5.38645411000685      0.46111942031065
  H   1.77398423500472      4.01380112679965     -2.14932299425530
  H   3.69776180113761      3.74368238130211      0.06211328362585
