23
Coordinates from ORCA-job 18655optt
  Br  1.10423622814588      0.10472571551965     -0.08599683833154
  C   1.48204045207792      1.92546681873309     -0.50011698312832
  C   2.81350731427629      2.29476852726142     -0.65375517616474
  O   3.67186276416253      1.77155260428486      0.22116520029335
  C   3.04679254878694      1.80016218973954      1.56635056160384
  O   3.58230035005671      1.19694619917032      2.41510018777767
  N   1.94659599762488      2.66846898931883      1.67575961100806
  C   1.26379517708831      2.93584987165715      0.63259288304300
  C   0.41599570622597      4.17091299149380      0.47358678190853
  O   0.88870515149791      5.26039121368906      1.22908411046299
  C   0.97570313425960      6.51109846434109      0.57670793106493
  C   2.41409994633748      6.85270614811037      0.09406619873537
  C   2.86062372793489      5.68612090607268     -0.69750211307347
  N   3.41360612358798      4.63075793717148     -0.21144911892632
  C   3.01251788704280      3.67055863458942     -1.10770862519767
  N   2.36420940956359      4.12432094754850     -2.14541119079825
  O   2.28591895935858      5.47559686280543     -1.89569391122926
  H   -0.60122446476598      3.90188019628682      0.78668228449957
  H   0.36648440649944      4.39102619100902     -0.59709735759786
  H   0.29511130831830      6.54970005905909     -0.27862840343722
  H   0.66678246632623      7.26921137509677      1.29567917729932
  H   3.07957418052083      6.96691772061580      0.94632913658159
  H   2.38476122507287      7.77285943642577     -0.48874434639358
