22
Coordinates from ORCA-job 18652optt
  Br  0.10815542594103      1.78425723229138     -2.09523735252920
  C   1.01263987193408      1.51252355806093     -0.48179969613975
  C   2.36500825254421      1.71140499428954     -0.34145475773735
  O   2.98255308376679      1.36835340963658      0.75464615737727
  C   2.19526252412347      0.83138384549535      1.85609462566948
  O   2.74223037924899      0.09464664995824      2.59388414672644
  N   0.95082733677770      1.38308268279647      1.90382343960917
  C   0.37826133790141      1.68280065887755      0.77822175783105
  C   -0.88221627235027      2.50999236768460      0.96374663668361
  C   -1.94719044909913      1.83267027178593      1.79948090196648
  O   -1.98501131328675      0.65220916383205      1.97729089066305
  N   -1.16181847051474      3.69979515024402      0.63242830792231
  C   -0.65916084434373      4.72835635204320     -0.16642371364749
  C   0.57149492007126      5.05597231769974     -0.59922215175876
  C   1.74634873528836      4.23358965224637     -0.36773310343572
  C   2.46511941314386      3.70957770803925     -1.35629911464981
  O   3.10471411201935      2.47978085616464     -1.16001702590542
  H   -2.71216998372578      2.53501930581958      2.17215724908819
  H   -1.45820658376782      5.40712833577888     -0.44252474791849
  H   0.63872005260149      5.93154344879064     -1.23530117945350
  H   1.82700235734855      3.78931771301916      0.61887311771034
  H   2.50543611437769      4.04659432544585     -2.38163438807193
