21
Coordinates from ORCA-job 18663optt
  Br  2.02155168552720     -0.30233071270829      2.00342516386090
  C   2.44675730303612      1.09740925895351      0.75076932238071
  C   3.78135601035722      1.73048006814825      0.82269840476660
  O   4.88745040350563      1.17725851586633      0.35043547075892
  C   4.63981850569345      0.25430532492739     -0.70062086821867
  O   5.53060702647785     -0.43337536249156     -1.04558022152272
  N   3.37360109082267      0.27366894831195     -1.30536874888159
  C   2.34035927843735      0.63411690090870     -0.66543223357611
  O   1.16329944753003      0.64171292358692     -1.29263270132156
  C   -0.02792856430641      0.60193437902919     -0.56464765304638
  O   -0.66073532538869     -0.39930248735633     -0.51177766249611
  N   -0.40684061755474      1.79319208696562     -0.00833207918034
  C   0.09024882603485      3.11408394638889     -0.23750289064529
  N   -0.61944505021632      4.07524481328635     -0.63939671667536
  N   1.42167105063700      3.27200910240035      0.05958818726160
  C   2.04497866387516      2.55246917865523      1.13613496059177
  N   3.49330971792897      2.91763656861045      1.17689941912872
  H   -1.35009106579310      1.75208993709305      0.35200927038972
  H   -1.54297417776266      3.77894576554351     -0.93889734677975
  H   1.76079399592893      4.21440801570956     -0.08453247888631
  H   1.53321179522948      2.63304282817090      2.09676140209127
