22
Coordinates from ORCA-job 18671optt
  Br  1.16632361368055      0.27039713336073     -0.92352886895905
  C   2.91759206016355      0.18243795428039     -0.29005722832985
  C   3.73539546002757      1.23117810551295     -0.12632447597936
  O   3.54564861558530      2.52561344454350     -0.36300595958827
  C   4.79609525680770      3.16566232296536      0.00008140750876
  O   4.89458514504665      4.33856030184795     -0.11447839901420
  N   5.69219430801127      2.21089823223133      0.44016000665490
  C   5.07892155850411      1.05830756749044      0.37101813577899
  C   5.53651812137529     -0.24484583299230      0.66782317837510
  C   4.65954008476255     -1.28388934116513      0.49827957141746
  N   4.92035965023073     -2.60691548770928      0.81424661306625
  C   6.22184571886653     -2.98732094915720      1.32483400506596
  C   6.17708522971202     -4.36655545667001      1.81562711324323
  C   6.13787013615645     -5.49335519739030      2.20832998904312
  C   7.30129511738780     -2.84393691327900      0.31458711709957
  N   8.11016587110544     -2.72052647180172     -0.48606035039691
  N   3.39569325101034     -1.07168935328086      0.03607775624179
  H   6.55812827000335     -0.40351948549488      0.97560760205675
  H   4.51920663097063     -3.29467861987595      0.19073688568632
  H   6.46391635508250     -2.32273677711480      2.15962851555090
  H   6.10528978999567     -6.49779934977040      2.56026654418104
  H   2.73332975551394     -1.83228582653080      0.05315084129748
