20
Coordinates from ORCA-job 18677optt
  Br  1.24763084575532     -0.02116670175243      0.29644077870738
  C   3.11050063365823      0.05228276179073      0.18776209306890
  C   3.77795970484629      1.21906681538508      0.10866240056418
  O   3.34822423530686      2.47718232499980      0.06041701821032
  C   4.52390853457269      3.29960081053346     -0.05297913196057
  O   4.41850949038655      4.47304033144184     -0.11298726759600
  N   5.65541794002869      2.49056764384899     -0.07209371623460
  C   5.21234318347194      1.27996990240000      0.03151233651234
  N   5.91427877159528      0.10491851487687      0.05558695289246
  C   5.23010723848069     -1.10892885348269      0.11925437704707
  C   3.88848442545154     -1.15228852416543      0.18748618984187
  C   7.30089263144209      0.07361225746796     -0.04060869688243
  N   7.95946817003779     -0.91287068964532     -0.49829235139080
  O   9.29380457074903     -0.53242329132055     -0.31544121340617
  C   9.32965230849445      0.71366117294855      0.23888688179018
  N   10.29400847842042      1.42474225856610      0.55097148879584
  O   8.01834545345318      1.09652712711785      0.42378429847241
  H   5.86080340987044     -1.98336174768980      0.11910825907656
  H   3.39311419282454     -2.10893785088514      0.25118469718678
  H   11.18154578115382      0.97980573756410      0.34034460530428
