21
Coordinates from ORCA-job 18673optt
  Br  1.14183007651769     -0.03583338222770      0.29416086863717
  C   2.99565214393659     -0.01617103514145      0.15956609829136
  C   3.68989782763139      1.12919326346627      0.08742219585770
  O   3.20432373921757      2.39725452391798      0.08428679320942
  C   4.25469229085510      3.28693294845701     -0.05064059476762
  O   4.12014693064421      4.45853674170240     -0.14649721531565
  N   5.42511891185617      2.54687038629860     -0.04127393140194
  C   5.11779709565895      1.19140365251456     -0.00506228820561
  C   5.80509112156548      0.04134711397223      0.01678654904604
  N   5.12068434640105     -1.14610133095504      0.06831511181182
  C   3.72498491440551     -1.29155289840822      0.11241790623040
  N   3.11753578489275     -2.40623279689883      0.11759573777591
  N   7.20346675615639     -0.06035052199110      0.01564170476495
  C   8.15236329413501      0.79496517051586      0.44159619793324
  N   9.31837235895972      0.23957887532360      0.25883253139448
  N   9.07321136909204     -0.97414839138050     -0.27275742131286
  N   7.82215610905145     -1.16929723737098     -0.42282717637853
  H   6.27811392713870      2.96634064999705     -0.37239196281814
  H   5.67433141392220     -1.98787077605456     -0.01379967567575
  H   3.74878614333524     -3.20227996478318      0.08089585798527
  H   7.95744344462675      1.75441500904600      0.88973271293835
