20
Coordinates from ORCA-job 18674optt
  Br  1.05184609083024     -0.09816092363523     -0.07519651088573
  C   2.90817505755017     -0.00111151447687     -0.00839390007911
  C   3.63081482196351      1.14396236647270      0.02623898402869
  O   3.25707642045379      2.41539250935506      0.03077168225756
  C   4.49858038747089      3.17847062229868      0.06684779496811
  O   4.45249361370473      4.35803551292088      0.07787216510721
  N   5.56979084847168      2.29840871915060      0.08160437199533
  C   5.04895272342576      1.10440510383279      0.05782498721396
  C   5.63365991302011     -0.20097372921541      0.05487369272845
  O   6.97291767970359     -0.25924953294272      0.07299641441313
  C   7.62718813451143     -1.43587242144915      0.07211010187717
  C   7.35378246502302     -2.75785834151748      0.15636042404641
  N   8.56598690097178     -3.43545642995742      0.11043767668877
  C   9.45516595879447     -2.52102899118315      0.00347169217262
  O   8.95790058556905     -1.26377300893155     -0.02639383436119
  N   4.91867621743538     -1.28062701075435      0.03431654219142
  N   3.59693731826719     -1.17004594455044      0.00248244453963
  H   6.41076246412158     -3.25763163113130      0.24257338697996
  H   10.52503528396723     -2.61979756460350     -0.06563580177697
  H   3.09725711474426     -2.04608778968216     -0.01616231410543
