17
Coordinates from ORCA-job 18684optt
  Br  1.13108278614012     -0.01987141342284     -0.10249325637117
  C   2.99776326572689      0.06202505339894     -0.07573071359707
  C   3.70786900099078     -1.08312767332082     -0.07141307979421
  O   3.23816822110322     -2.33133906013347     -0.07953073244580
  C   4.37096074446742     -3.20004702661958     -0.06913716230898
  O   4.22773791272682     -4.37130206686689     -0.07082498002419
  N   5.53659944931805     -2.43064282737992     -0.05780239893986
  C   5.14636898087794     -1.19861835565243     -0.05816356522365
  S   6.17331850787163      0.17137577646583     -0.04773863718494
  C   5.03112717372281      1.44499001111497     -0.04918857872822
  C   3.67565363858608      1.34170280514225     -0.06001298995431
  C   2.92661616537119      2.55349787046267     -0.04980250013197
  C   2.33600224786021      3.60113091474932     -0.03855719149287
  C   1.56604651051578      4.83042517176337     -0.02318095633874
  O   2.06159931115722      5.92371499131446     -0.02602748866804
  H   5.49370085876155      2.42255707616069     -0.03785279897981
  H   0.47438522480223      4.68752875282345     -0.00754296981617
