20
Coordinates from ORCA-job 18685optt
  Br  1.17599104816116     -0.30964732065143     -0.91193171139767
  C   2.94178346530844     -0.15883902998225     -0.30354707701497
  C   3.67548390561255     -1.28775223733461     -0.18800948932220
  O   3.27447581623687     -2.54020730258653     -0.40824571871596
  C   4.41451390735433     -3.38094694694749     -0.19577030488381
  O   4.32202733260764     -4.55067566755453     -0.32634823733357
  N   5.50622546234759     -2.59150486265577      0.14910439350349
  C   5.07448457669558     -1.36992513592156      0.15460806073028
  S   6.01470291303638      0.01803892800942      0.47089486013336
  C   4.84560865955840      1.25923237675694      0.31792134590855
  C   3.54400053468465      1.12077935825282     -0.01670605273507
  N   2.78456037014193      2.30829776638164     -0.12307849697150
  C   1.60203126656942      2.60951387839961      0.47560488108347
  C   1.33419699631490      3.91832728113456      0.18284210939674
  C   2.43180943094514      4.33654472746838     -0.59921318432214
  N   3.30680085878738      3.36712930264890     -0.77156582516733
  H   5.23886874961911      2.25014664718531      0.49880650219400
  H   1.06343975804067      1.87899765578022      1.05363864479380
  H   0.47379712022900      4.48931000841467      0.48383474464696
  H   2.61119782774882      5.30118057320170     -1.04583944452643
