19
Coordinates from ORCA-job 18694optt
  Br  1.06650934743417      0.15138745011665     -0.07171451139888
  C   2.92856249782017      0.14302401880155     -0.07031128032648
  C   3.63701918454516      1.28673133738331     -0.06955688452848
  O   3.06814618887396      2.47858225912639     -0.06943496304829
  C   3.80232297365177      3.70498559180289     -0.06878934770413
  O   3.15230069356064      4.68901523309387     -0.06855941515687
  N   5.16265868944211      3.61047262790839     -0.06855491704625
  C   5.72196242667356      2.45066081230177     -0.06865756124197
  N   7.05841183969508      2.33187867042264     -0.06852876364936
  C   7.78162602344537      1.10994375667770     -0.06871204327011
  N   9.03735582288577      1.04150068562457     -0.06880527605135
  N   7.00237384169910     -0.03667552953745     -0.06887411665321
  C   5.74313057873802      0.04887595953660     -0.06902819247579
  O   5.01997773811796     -1.06346803223660     -0.06922939391122
  C   3.61351860004601     -1.13664965942018     -0.06995425685692
  O   3.13505737897293     -2.21696390655319     -0.07022884153515
  N   5.02911896446393      1.25323876516331     -0.06893707255355
  H   7.56076202488358      3.20925913064424     -0.06837601687964
  H   9.48518518505066      1.95420082914352     -0.06874714571236
