21
Coordinates from ORCA-job 18699optt
  Br  1.06451857138625      0.88790422543715     -0.35900583222405
  C   2.90483255692284      0.52760738927862     -0.15872467832138
  C   3.34300684683378     -0.77092254421221     -0.17111714738520
  O   2.51920017864748     -1.83702788249626     -0.36222252158003
  C   2.84197155690636     -2.97873212053111      0.39165503179429
  O   2.22984329752295     -3.23014817527704      1.37251630034023
  N   3.81225151063033     -3.81657101938594     -0.15380771919128
  C   5.02424510566324     -3.44787898549387     -0.30038717470537
  C   5.50414421792648     -2.11316129823922     -0.07935348720140
  C   4.72872157161798     -0.95497392106347     -0.03209094538783
  C   5.59103948282944      0.15818949250525      0.08220498358182
  C   5.01029574812089      1.44731474592243      0.08262364699403
  N   3.72069309966941      1.59685500541529     -0.03759118172489
  C   6.90092892960219     -0.35140377110800      0.10511790835915
  N   6.80553327042538     -1.70084695177726     -0.00493139352273
  C   8.14005852431504      0.31745720173635      0.20140590814168
  C   9.18455775945593      0.90200104410189      0.28022179213515
  H   5.73043830286668     -4.19734008902917     -0.65616248345499
  H   5.61507612232746      2.34293125794803      0.16946183144982
  H   7.60839896851150     -2.31238750989155     -0.00562856067076
  H   10.11024437781832      1.42313390616011      0.34981572257373
