23
Coordinates from ORCA-job 18690optt
  Br  2.61904505291733      1.22191239316861     -2.51778906406998
  C   2.89548171825970      0.26176397469935     -0.93027692601706
  C   1.97565069647721     -0.62126862384183     -0.48185563135765
  O   0.78136179929081     -0.77886954618731     -1.09716641801903
  C   0.60308198632422     -1.84409879711794     -1.98614519639166
  O   0.44316146066926     -1.66288080918013     -3.14930256689491
  N   0.59923485958147     -3.03413354183510     -1.33900109610816
  C   0.60494535373914     -3.17575445326098      0.05339623297960
  C   1.31086586635178     -2.40803609087504      0.95596076034926
  N   1.01589335995889     -2.89872531754151      2.17784731448773
  N   0.19608485710870     -3.94177572836855      2.12422910041354
  C   -0.08436202230591     -4.10971684985402      0.84303109131467
  N   2.16518523724040     -1.32418087699749      0.69956737719769
  C   3.22271780464893     -1.01595321135807      1.58719258623416
  N   3.22271930637726     -1.55011373509780      2.75085398112725
  C   4.21271407968859     -0.10728322387022      1.04904752180356
  C   4.06119818410611      0.49356066805358     -0.14516865788957
  H   0.42237026978966     -3.83958522842914     -1.91849829703599
  H   1.49932182924879     -2.61866911820330      3.02136235657689
  H   -0.75102223715805     -4.89392100350868      0.52245446328644
  H   4.05368140526073     -1.27999547452728      3.26526539198196
  H   5.08076478612228      0.08139061267391      1.66522257761343
  H   4.80690434630267      1.18333398145895     -0.51722690158217
