21
Coordinates from ORCA-job 18695optt
  Br  0.95785215212979      0.28272501196355     -0.04690492984967
  C   2.81708416993577      0.10207457780355     -0.04891372046042
  C   3.63214149087160      1.17997386369219     -0.05021916242582
  O   3.03945999530060      2.40741231768443     -0.05049523407284
  C   3.74170699506804      3.58388984736116     -0.05122657834346
  O   3.13829594264095      4.60374472127730     -0.05136471884506
  N   5.14604283046356      3.52338272934223     -0.05180401029755
  C   5.72861708394634      2.39128881698594     -0.05170580526129
  C   5.06048017289083      1.08873727762284     -0.05100038122463
  C   5.76592454014866     -0.09460122938548     -0.05099573111649
  C   7.21450580228471     -0.13236331510611     -0.05157926233702
  C   7.90233924956725     -1.28343231277332     -0.05199449385833
  C   7.24029020724588     -2.59820946647537     -0.05191403415485
  O   7.87774364773892     -3.63671555505262     -0.05226952233036
  C   5.78638368689616     -2.56268933153253     -0.05110562663231
  C   5.10123097942523     -1.39575142667281     -0.05052601106206
  S   3.35899871877022     -1.52189575134091     -0.04884062021645
  H   6.81144535550449      2.42261308919845     -0.05223533756854
  H   7.76815795200905      0.79368186021741     -0.05168202066966
  H   8.98494145474760     -1.29112434581273     -0.05240217504934
  H   5.27535757241431     -3.51774137899715     -0.05082062422386
