20
Coordinates from ORCA-job 18698optt
  Br  0.90055029584549      0.13122540324394     -0.12460305511847
  C   2.76902323698071      0.00854698412333     -0.06820048739256
  C   3.50889695943088      1.13957318884589     -0.05103249774792
  O   2.94002207341720      2.36977554396269     -0.06474416401255
  C   3.68885140269543      3.52561720587613     -0.03926594481588
  O   3.11681554125205      4.56213692350636     -0.03834897522193
  N   5.09903400072227      3.43443095846581     -0.01741529637367
  C   5.66076662302167      2.29502934640119     -0.00701883070265
  C   4.93172869745146      1.02000154578850     -0.01880871321547
  N   5.60610338762690     -0.07920118247298     -0.00475354963175
  C   4.91254266068411     -1.27839192904589     -0.02099647444807
  N   5.65802482356589     -2.33654581248892     -0.01144832467863
  C   5.20807780119514     -3.62785258761995     -0.03753647727379
  N   5.91139469190798     -4.67557587840887     -0.09982693252676
  S   3.44341259491326     -3.97534468708032      0.04535388681517
  C   2.76059548439581     -2.44141183753429      0.00071255826120
  C   3.44604366799159     -1.26082119541128     -0.04103878540974
  H   6.74666165078829      2.23486554751889      0.01042836287363
  H   6.89845306362369     -4.42198066427826     -0.12704637152472
  H   1.67700134249015     -2.43807687339195      0.01859007214457
