25
Coordinates from ORCA-job 18700optt
  Br  0.71761499740276     -0.09309599936653     -0.04977047087177
  C   2.14199524757730      1.07573352570576      0.23635956913699
  C   3.02550118675768      1.34370823399388     -0.80102184413468
  O   2.55655295520686      1.26527244270348     -2.08588258825199
  C   1.32781910652413      1.92763005471298     -2.30390156080281
  O   0.59751710384155      1.51577015979536     -3.14821176981406
  N   1.08876687279555      3.00810163667086     -1.49911992826170
  C   -0.26473839955929      3.48851685174066     -1.22042745265870
  C   -0.54731085983162      3.74410797247743      0.28687489480347
  C   0.29617980453070      4.85440095996841      0.91295986413242
  O   1.45122688851890      4.13481778142023      1.37442371444613
  C   1.05425861002144      2.81825208075884      1.42999754532246
  N   -0.12153148958293      2.55824795478442      1.04058392352839
  C   2.24799649574161      1.93214477946261      1.34587472399790
  C   3.51432143877043      2.47647361133499      1.58014315217912
  N   4.54100574509054      2.34501187881745      0.74537552635298
  C   4.25725573794238      1.90256786251507     -0.48005078093119
  H   1.85055647714358      3.39038172899403     -0.96060953302776
  H   -0.94565212992953      2.72127661703906     -1.58645437593804
  H   -0.47149834295406      4.41149788286159     -1.77004215076367
  H   -1.61465172262304      3.93365042389283      0.39091406088154
  H   -0.20172792975792      5.31615057897153      1.76683916863080
  H   0.63289366223914      5.62167868218949      0.21765818033022
  H   3.66782221005127      3.11875922628808      2.43936371569885
  H   5.00882633408254      2.02794307226746     -1.25187558398490
