25
Coordinates from ORCA-job 18706optt
  Br  1.80275292016680     -1.20627433974628      1.67808199137617
  C   2.66312926017881     -0.07193776687744      0.46587172821995
  C   2.26504790319574      1.20470775819328      0.31813666374878
  O   1.26616556097353      1.68935685107369      1.12058990187768
  C   -0.04744366782368      1.40267578610581      0.85023412924929
  O   -0.41443939493126      0.61899136717604      0.04508710738396
  N   -0.87771263476776      2.30711630894649      1.58700434503948
  C   -0.79362601965175      3.46977966226388      0.72116560708316
  C   0.33685321155015      4.16454741406400      0.66560294559753
  C   0.77848968804700      4.89287262123855     -0.51069161015221
  C   1.86195420432486      4.49631494452681     -1.19594176763470
  C   2.80995463953840      3.38449465477709     -1.07194193727388
  C   2.98969480497998      2.11872160133874     -0.57531376839194
  C   4.22110472398524      1.49601437230666     -1.11205603282747
  N   4.60495549619004      0.29142666165196     -1.00087784442989
  C   3.82153467282414     -0.61593386765269     -0.26371872122538
  N   4.11292702417911     -1.84690055485328     -0.20172979458181
  H   -0.40941634099015      2.51770618041865      2.46492050851172
  H   -1.58171058113775      3.54752383838418     -0.01683760049899
  H   1.10410790967874      3.95298231424091      1.40164523210396
  H   0.21210878151678      5.73641334600240     -0.88930944611303
  H   2.11742255461911      5.11504767186769     -2.04967272569110
  H   3.65916313497501      3.63640893914462     -1.70046994569017
  H   4.86106447227822      2.15175479400896     -1.69954742892281
  H   4.95391767610068     -2.00781055860076     -0.75723153675829
