21
Coordinates from ORCA-job 18705optt
  Br  1.57010514544306     -0.40435251947019      0.61784110848981
  C   1.11706922883322      1.40661456685129      0.70779087720313
  C   0.33623481203686      2.03288615173445     -0.19773420059928
  O   0.10615860937027      1.31862527976428     -1.35573628991255
  C   -1.14291652599068      1.22674802218046     -1.88364614899191
  O   -1.37785210960750      0.51925650499146     -2.80866481926266
  N   -1.96804728709758      2.08437782952352     -1.17158060764091
  C   -2.75365748321719      2.84671232619411     -1.81317187529427
  C   -3.20280991888997      4.00696848459459     -1.08605538016581
  C   -2.32917279366110      4.59482938055645     -0.23280629658709
  C   -0.91396325346842      4.38459312706084      0.09451148973486
  C   0.07922739780158      3.45011537801481      0.11212671014194
  N   1.25860732806416      4.05983218417674      0.69813683393833
  N   1.98868056029209      3.44465883110723      1.47864797317756
  N   1.71551767412515      2.12877701296762      1.70173796037154
  C   -2.83825105256822      5.78729012550907      0.41192101083038
  N   -3.24407712030759      6.72742478243619      0.92799824796846
  H   -2.97672329699716      2.71362926457976     -2.87487167331196
  H   -4.15482110162098      4.47731315217841     -1.28919455243706
  H   -0.51236464616562      5.30801341843376      0.50104395254691
  H   2.38005583362562      1.67968669661507      2.31270567980058
