21
Coordinates from ORCA-job 18713optt
  Br  1.21238745201127     -0.25949694464081     -2.24380076025934
  C   2.15604004307471      0.44916122580184     -0.78180991814497
  C   3.05290230096479      1.44950104621680     -0.96709325570990
  O   3.04160779344094      2.17999761848280     -2.13169894947669
  C   1.99573557581756      3.08956527278623     -2.19981996938420
  O   1.39593711090251      3.26152764659712     -3.19871924310526
  N   1.75347153447006      3.76557754184190     -0.96650235009312
  C   0.81696439404116      3.18021353332428     -0.12154094536263
  C   1.00881386256955      3.00310720703186      1.19257016102870
  C   0.11307216311904      2.14069344732696      1.98351275210717
  O   -1.06612206455461      2.18639321589123      2.07874368054431
  S   1.04203109271586      0.77113649774396      2.89716899154883
  C   2.16045800839484      0.50844476699614      1.53917419507558
  S   3.80718634024222      1.10734691589204      1.68199841131123
  C   3.93691394172233      1.92085527207006      0.09509857308651
  N   4.74071880538305      2.88005448387706     -0.10649866167217
  N   1.65802613223699      0.12137061968763      0.43784935320982
  H   2.62939312323698      3.98815930951725     -0.50066972087514
  H   -0.06637203993917      2.79016091638465     -0.61813793625653
  H   1.93705778830221      3.30141563386669      1.66376296604357
  H   5.26477664184771      3.14881477330425      0.72441262638421
