23
Coordinates from ORCA-job 18714optt
  Br  0.90111748975254      0.11647860965655      0.10084825258742
  C   2.74514432166150      0.00906154214350     -0.06785481755441
  C   3.36294968641631     -1.11183385488205     -0.45699431346202
  O   2.72620066961198     -2.23116191209505     -0.88752964918784
  C   2.09375005737848     -3.08967945010494      0.00166769905830
  O   0.99777216679574     -3.49079008029029     -0.21480305076457
  N   2.86864615998823     -3.43830149053534      1.06768942537881
  C   4.30313527294999     -3.29882185950941      1.21648442542036
  C   5.16422113452588     -3.50889245926626     -0.05679143373182
  N   5.46172777675391     -2.30013932595148     -0.82691954857835
  C   4.81863371213576     -1.11203794644659     -0.52181380171914
  N   5.54065499549495     -0.07376206326783     -0.32697646968099
  O   4.88622207069103      1.11894006993265     -0.10245996351138
  C   3.55030786402628      1.20608426925016      0.20690730239136
  N   3.05597958024643      2.27554315928497      0.64183789109079
  C   4.58284310007450     -4.57450709442778     -0.89336224586625
  N   4.13166459019219     -5.43950843001108     -1.49205800338113
  H   2.41669803688163     -4.13064581978936      1.64352535904979
  H   4.60181840102807     -4.05981396224805      1.93427823016521
  H   4.57573607311295     -2.33160617375761      1.64564706291267
  H   6.12110317624434     -3.89512972510022      0.30022156167982
  H   6.45222063521530     -2.14486370278389     -0.95367499205530
  H   3.77045302882195      2.99338770019941      0.75013107975868
