20
Coordinates from ORCA-job 18715optt
  Br  1.42702726741158     -1.80486424491620     -0.29240449166136
  C   2.97927353390607     -0.76818716677848     -0.13490394955507
  C   2.92220997145816      0.60198220986585     -0.10811236938533
  O   1.66447821445512      1.10414898345154     -0.24739587710701
  C   1.16274537900186      2.27284991943792      0.32043472807051
  O   -0.00011868652711      2.42519660622862      0.43580763105736
  N   2.24111959042419      3.04735394880062      0.67610239271966
  C   2.79382277337328      3.75582182119359     -0.20865971105299
  C   4.26561155725241      3.90254121722183     -0.07480500445063
  N   4.96951447314988      4.95130744878525     -0.08861556359752
  C   4.83935387842803      2.54325005845280     -0.00949590567216
  C   4.19292478178294      1.29024969490450     -0.03269156928143
  N   5.26802676982547      0.39014628988338      0.01403265647015
  C   6.42822756107054      1.10436721746814      0.05759299642414
  N   6.18877917649974      2.37778173814922      0.03428471502052
  N   5.24831024924556     -0.95527795278346      0.00680500238320
  N   4.12735526664457     -1.50640671276094     -0.06942162835207
  H   2.30455112309937      4.04163846050625     -1.14537242786356
  H   4.38662392633748      5.78461411190163     -0.16616024311268
  H   7.38316319316081      0.60748635098793      0.10697861894628
