22
Coordinates from ORCA-job 18728optt
  Br  1.58301447747097     -1.77276384818449      1.68118833614544
  C   2.59867430352357     -0.48000097162217      0.80937862275440
  C   2.33864880703859      0.83581343529289      0.86848539223915
  O   1.23840997869133      1.29397825359023      1.56649931588511
  C   0.18706774959329      1.56027563433705      0.69327537749743
  O   -0.41192309782397      0.72456903076386      0.10744978113434
  N   0.03586683236002      2.93917746644699      0.55757627358289
  C   0.30481335561095      3.35662796426188     -0.77664187649085
  N   1.36653497921840      3.94672418783355     -1.10859308198083
  C   2.38678443836848      4.15793955220497     -0.17692508827672
  C   3.17154794955177      3.24351869664322      0.39892263021388
  C   3.23433998995635      1.76889973270027      0.19648128044813
  C   4.24469972172815      1.23465628385403     -0.52601989287834
  Br  5.49019627525600      2.32224323563756     -1.42193470004192
  C   4.46157962693560     -0.21251536377019     -0.65519491377592
  N   5.28842361286651     -0.85477691047358     -1.34343601369355
  O   3.63238372545992     -0.98605069973316      0.14331208752187
  H   0.66965881564556      3.40205963951025      1.19982394416557
  H   -0.45692108377152      3.11309860373694     -1.50852724586921
  H   2.59408549124812      5.20459565760760      0.02048783558665
  H   3.98198043842397      3.62903501922081      1.00917184129753
  H   5.88313361264792     -0.23410459985853     -1.88277990546503
