26
Coordinates from ORCA-job 18726optt
  Br  0.68546267796023     -1.53317841925684      0.04229879834721
  C   2.35900624820184     -0.67873539984209      0.18316639055098
  C   2.42479506339218      0.65161225545699      0.57734306404639
  O   1.25618039801907      1.29158455453556      0.91686710275131
  C   1.12709843382279      2.59209158181836      0.51280317484449
  O   0.62505474259697      3.40460627603088      1.21631132672684
  N   1.62758990347304      2.85544427730866     -0.76616139200662
  C   2.78386818522037      3.67702649235710     -0.87061526314117
  N   3.74592333185832      3.70071064933328     -0.06301806180505
  C   3.80219922053412      2.75864312662919      1.06087234541774
  C   3.66143285178802      1.30045705345257      0.65387028644630
  C   4.80791862752904      0.58975085761532      0.32187910131594
  C   4.74902763545290     -0.75426711854780     -0.03955840324564
  N   5.90493704686229     -1.46720632003914     -0.38449407608841
  C   7.12927684858843     -1.41174318483846      0.26131960473128
  N   7.47315367341056     -0.76745210759199      1.29220963650120
  C   3.51197315995139     -1.38751361532666     -0.10214026835241
  H   1.59897986550973      2.07964106715308     -1.41673944525132
  H   2.80273913304621      4.32011374854680     -1.74576118433713
  H   3.06781069000599      3.02694211682805      1.82423303408367
  H   4.78243948792163      2.88234379570408      1.51624844858833
  H   5.76081849357799      1.10356432034400      0.32748105025398
  H   5.78222791314191     -2.23530850250799     -1.02377655372262
  H   7.87025417087398     -2.03405017308327     -0.23879447138086
  H   6.70378514057649     -0.24737487473444      1.70914248386553
  H   3.44504705668446     -2.43270245734523     -0.37398672913997
