23
Coordinates from ORCA-job 18720optt
  Br  2.40256080468404     -1.84235216757593      1.49649550772660
  C   2.60576320608977     -0.22020256940455      0.60186273481240
  C   2.06767894798400      0.94754301057263      0.99792018780470
  O   1.26026717885437      1.13131680725420      2.09043855179804
  C   0.11236609217493      1.86758151480266      1.70753054790923
  O   -0.90054188379728      1.31773721411379      1.42589807663755
  N   0.33907467595263      3.22125198015888      1.69689488129118
  C   -0.22615178752773      3.98087615058957      0.58168291866194
  C   0.42064296843899      3.61324165851176     -0.77296760091518
  O   -0.17457280503557      2.94983732228793     -1.57197280310916
  C   1.83614069034684      4.13174471580648     -1.11768706274202
  O   2.65459573747178      3.11450260708748     -1.69731966485224
  C   2.76409433213752      2.03227253935740     -0.93211440105137
  N   2.22898522564016      2.04220840421082      0.22253995764912
  C   3.47421526111754      0.84269800517032     -1.45813518035282
  O   4.09886640853535      0.77245419927313     -2.48575578041592
  N   3.33984134698870     -0.21598208783419     -0.56991612193666
  H   1.30100474386299      3.44759517292635      1.89610813817587
  H   -0.09843076178738      5.04339528850009      0.79353377839509
  H   -1.28609316765422      3.75209700075991      0.50014380647510
  H   1.74689453151451      4.89933190315003     -1.88490942900578
  H   2.32648105091393      4.54455536107814     -0.23390202159705
  H   3.78331720309414     -1.07670403079692     -0.86336902135863
