23
Coordinates from ORCA-job 18727optt
  Br  0.96976847503027     -0.25140446459005     -0.52818288592327
  C   2.81369382439770     -0.11975427237234     -0.29029404643121
  C   3.53445172221658     -1.22667964565629     -0.01718460921135
  O   2.91541580587214     -2.42622402090180      0.23121634318486
  C   3.12963735143630     -3.51755223420543     -0.55816362117028
  O   2.23453563737884     -4.25785006623110     -0.81640816509470
  N   4.41871638883950     -3.72044890855745     -1.02011268450223
  C   5.66823093909508     -3.35972547148778     -0.48549119084850
  N   6.76330715951295     -3.83206357481053     -0.89547615536030
  C   5.67190667191545     -2.33547433107358      0.62201659630302
  C   4.95251550139738     -1.10310980085292      0.16470806258603
  N   5.60248120551177     -0.03004157865078     -0.10201169196514
  C   4.90906266122268      1.05731990498596     -0.62308494496583
  N   5.44845594910414      2.03221214962807     -1.21575224652051
  N   3.48378173310169      1.07913807349563     -0.44108047540611
  C   2.89070241357195      2.36357945340009     -0.28467245022327
  O   1.74086163514111      2.55530400659263     -0.04486937165188
  H   4.44086694460188     -4.48902866679986     -1.67707415416371
  H   6.65164627781172     -4.51306261319260     -1.64595833474695
  H   6.70545567124530     -2.10357039853908      0.85483503936629
  H   5.16780477036865     -2.75062070588736      1.49905015247967
  H   6.45939852392545      1.92366949266989     -1.18518660542603
  H   3.65330273730140      3.13838767303668     -0.40482256030862
