21
Coordinates from ORCA-job 18734optt
  Br  1.30779622190637     -0.55722356668273     -2.32821375651158
  C   2.59300188156558      0.29528417551621     -1.22963404500432
  C   3.34873531736814      1.31019123164419     -1.72034712278339
  O   2.95522944629516      2.04495506608936     -2.81264467764398
  C   1.76378897122742      2.74947693965238     -2.60278228353455
  O   0.94708505665573      2.81428254250181     -3.44607820691240
  N   1.69183927587611      3.38066077019423     -1.32591368703222
  C   1.18965874387473      2.65531488305311     -0.24964982097428
  N   1.73087018175213      2.78876351401490      0.88200228216797
  C   1.47584535203759      2.00303949359139      2.02145019207869
  N   0.63751993642155      2.20039874311391      2.93735822787904
  N   2.47434535867111      0.99816962402068      2.18184777087811
  C   3.14487475451896      0.64103232847251      1.02621726870917
  N   2.46897342684297      0.08621105427563      0.09185267538686
  C   4.51319637424463      1.19021966488458      0.81941664081886
  O   5.38929926182428      1.28252973215130      1.61881153391325
  S   4.70730303977971      1.91547802366852     -0.83968140745054
  H   2.56836073507430      3.82388410009783     -1.06083440967140
  H   0.37196150077941      1.97297692446395     -0.49124904816130
  H   0.06898598431646      3.01916776212253      2.73654884645521
  H   2.97232917896762      1.02318699315369      3.06052302739280
