27
Coordinates from ORCA-job 18730optt
  Br  2.46966844696252      1.19818352997339     -3.27504024658374
  C   2.97796924929799      0.82188234626255     -1.50377533372971
  C   3.25807203561446      1.86637892303971     -0.67197244278532
  O   3.14639306674805      3.12359324059034     -1.16105944024231
  C   2.79134588316753      4.19706853016501     -0.36854978862236
  O   3.36557200217351      5.22974378935120     -0.50540655165757
  N   1.76099680426947      4.02349327723509      0.52343751149092
  C   0.86043490298615      2.98524978783498      0.83852537697417
  N   0.42024318799801      3.00608723255614      2.02370294804593
  C   0.38172025361756      2.05989306225038     -0.25491354792332
  C   0.30609568789470      0.56369784950895      0.12515888772253
  C   1.39945656366552     -0.05922793619593      1.01468578192785
  C   2.73222761317564     -0.40950916489688      0.41367943094094
  C   3.92586734768464      0.01714201583828      0.87660568407898
  S   3.85723204383230      1.76840919415326      1.02502238205646
  C   2.83081995808796     -0.60624435029305     -1.06286588291435
  N   2.76612365706951     -1.58151253438991     -1.85647735810588
  H   1.74364744230630      4.76478566117415      1.21263858975671
  H   -0.28928318287237      2.29022247577377      2.16273234245405
  H   -0.63827776852815      2.38895868512470     -0.47366053802609
  H   0.92922469435796      2.22152837382834     -1.17578518143219
  H   0.22716736895857     -0.00402808320457     -0.80587253185198
  H   -0.63534313026653      0.39716224977656      0.65199144980313
  H   1.56104203447863      0.53146615790189      1.91819109752494
  H   0.99778811163576     -1.02286095867898      1.35261486894250
  H   4.83110399450078     -0.32958687223919      0.38927912645155
  H   2.61969173118350     -2.45197648244022     -1.34788663429587
