21
Coordinates from ORCA-job 18735optt
  Br  3.41287634183209     -0.83054329531527     -3.09988139692827
  C   3.12423835810606     -0.21992857246952     -1.35496231554063
  C   2.02249940767034      0.45189332264751     -0.98872851720275
  O   0.99529216198961      0.63330413804138     -1.89103372645295
  C   0.24161870614741      1.77686479748167     -1.80111121920314
  O   -0.93272048582290      1.74779202239887     -1.92907595409116
  N   0.98625858272566      2.95281602882001     -1.53621306282605
  C   0.86441651035350      3.34650677873591     -0.21095843722355
  N   1.86469602651068      3.75976466346394      0.44075022512693
  C   1.76841051899040      3.68716618875158      1.82449468628644
  N   1.36722411549074      4.52217847248552      2.67092060379779
  S   2.51084306602035      2.19348177032074      2.54278623553539
  C   2.67971563090583      1.08298549463698      1.18066842581081
  N   1.82444431364567      1.02460151822837      0.23386355036987
  C   3.88179276462771      0.20725354354042      1.26697255532574
  N   4.47966601175745      0.05734089061365      2.36569845100988
  S   4.40037703889132     -0.57805911400563     -0.23780001930716
  H   1.96305255962275      2.89942202807565     -1.80752011861679
  H   -0.11997410404942      3.15370154169154      0.21731074338719
  H   1.06156963874131      5.38293165962707      2.21675243362393
  H   5.26770283584339     -0.58647387777044      2.33206685711848
