25
Coordinates from ORCA-job 18731optt
  Br  2.34999924802937     -1.26770456996102     -1.52757503260544
  C   2.47385518081759      0.21394005313335     -0.41491775167866
  C   1.91000172999807      1.38788315382816     -0.69510542617415
  O   1.06960576211014      1.62529411971265     -1.76213048217604
  C   -0.25696846362989      1.24760898144239     -1.52707478113523
  O   -0.56225364733441      0.20664556398224     -1.06868810513390
  N   -1.14186581186429      2.33975852342178     -1.74924991893543
  C   -1.07450353884771      3.07694577791493     -0.53506926206270
  N   -0.77158361136800      4.29215496250324     -0.49985080733679
  C   -0.24319691313620      4.76135119670246      0.76627205022398
  C   1.29968685989007      4.84906506794546      0.57816942037982
  N   1.82041256287503      3.77985569303858     -0.25677549303179
  C   2.14363516260507      2.53182120461837      0.20589917913507
  N   2.65971861825755      2.39495196314438      1.37225704793703
  O   3.03955176113602      1.11188118989399      1.74537962645282
  C   3.21507862675840      0.09058493432711      0.85182051033100
  N   3.88939582186329     -0.92866955083763      1.14621914387969
  H   -0.80993563186534      2.94017648103055     -2.50028186507889
  H   -1.18487825431490      2.44178465401196      0.35043033126435
  H   -0.47807123135550      4.07652223416935      1.58941513860766
  H   -0.62789951656047      5.75082977355430      1.00952578218342
  H   1.80043485337923      4.82372033991194      1.54368927988198
  H   1.54539696783383      5.78964022056763      0.08778671210151
  H   1.42099539072714      3.76766609434740     -1.18103658086883
  H   4.30438807399587     -0.83270806240362      2.07189128383952
