22
Coordinates from ORCA-job 18748optt
  Br  0.84297410654628      0.29803651944573     -0.17691284821161
  C   2.69544259312873      0.08349861046763     -0.03927788299497
  C   3.33240297530133     -1.11009430667421     -0.18829947000076
  O   2.79853397108759     -2.33735991281407     -0.44827151615034
  C   3.82853464486446     -3.23703715752123     -0.52055596960007
  O   3.70880566498446     -4.38797840589607     -0.73468466403940
  O   5.00359829255967     -2.58490547943441     -0.30674098865177
  C   4.72390748428172     -1.25337228140445     -0.09574196134823
  C   5.59231902268531     -0.23363669907441      0.15078170708832
  C   7.08613675751879     -0.42104173207659      0.20237946865999
  C   7.68381801350409      0.12854967961833      1.41844389602502
  C   8.16941630802963      0.58742608289264      2.41102686436904
  C   4.95862952455563      1.01824081566796      0.32148222490288
  C   3.56020344534016      1.15943999196512      0.22572358453807
  N   3.29801696774941      2.46974282874198      0.43407852042224
  N   4.41288055398772      3.18372701652770      0.65994095756276
  C   5.41402413308908      2.34039970719581      0.59755768426227
  H   7.53694125460386      0.06939650483785     -0.66549582309427
  H   7.32480017281688     -1.48274078038239      0.12614149299228
  H   8.59747628032128      0.98765281038478      3.29905318369817
  H   2.39904161753101      2.92124422346457      0.44210358775981
  H   6.42409621551286      2.67981196406774      0.75926795181058
