23
Coordinates from ORCA-job 18740optt
  Br  0.70808253731945     -1.40868701690658     -0.86772169826250
  C   2.41634745477810     -0.69397985888527     -0.54877941396167
  C   2.60617214584212      0.68206361233343     -0.60794057021648
  O   1.56614840276487      1.48213190679684     -1.01182191211734
  C   1.07819795809507      2.47281057602395     -0.22287915456608
  O   -0.08613966180281      2.70355372374323     -0.17661478800256
  N   2.01735424630795      3.21103547060838      0.48648464974846
  C   3.32284496106832      3.55936113165346      0.11279834854607
  O   3.75095095967512      4.66138705920637      0.33726296526903
  N   4.08253946777369      2.58353674524418     -0.48086365353684
  C   3.87282458539243      1.20311516458404     -0.38481681721304
  C   4.94487411197936      0.35669726233059     -0.12865589359738
  C   4.74666407917016     -1.01742938328511     -0.06327478873854
  N   5.80607142252233     -1.89393484623799      0.19784355395246
  C   6.91812650900768     -1.61774762710404      0.94735902638401
  O   7.81024780833683     -2.40280235405083      1.12698420242915
  C   3.47278791235016     -1.54142880438320     -0.27050280339599
  H   1.57799830288701      3.97104699285544      0.99077019815405
  H   5.02991752648745      2.89530710511534     -0.63954469914981
  H   5.93120264873923      0.78389543198023     -0.00923757031261
  H   5.72085654369651     -2.85339546706030     -0.10840583832892
  H   6.90909523412957     -0.60891613936393      1.38542274775890
  H   3.30283484347936     -2.60762068519824     -0.20786609084236
