22
Coordinates from ORCA-job 18747optt
  Br  0.78405332262534      0.57930215491392     -0.03699195612313
  C   2.63469861045623      0.33210831086498     -0.04476313982714
  C   3.49610155507460      1.34544751852364     -0.04638130850064
  O   3.21102604018398      2.68477185261011     -0.04272146901103
  C   4.38914055844261      3.37203801813971     -0.04623566515200
  O   4.50107328668695      4.54027579005058     -0.04410194125920
  O   5.42721312816778      2.47941265623519     -0.05276452098479
  C   4.92255945878723      1.21547349097894     -0.05246985319660
  C   5.63513221355111      0.08275908132426     -0.05680861074886
  Br  7.50147316150059      0.14819365770116     -0.06546530136034
  C   4.98445764594298     -1.22920934292714     -0.05383001217882
  S   3.18176951801473     -1.31476080794334     -0.05020148318427
  N   5.64560533707369     -2.30357594236767     -0.05406764175639
  C   4.95221210905981     -3.57223742184769     -0.05123791472961
  C   5.94275717369750     -4.71838378731903     -0.04425991092483
  C   5.27064271685542     -6.06122942233985     -0.04560856714120
  O   4.07948460529738     -6.21377319541679     -0.05052927703665
  H   4.29792871552047     -3.65450488735940     -0.92894705445091
  H   4.29258910363142     -3.64866927201363      0.82305124436375
  H   6.59850112543310     -4.66228860152735      0.83041071539717
  H   6.60742143926107     -4.66487548548567     -0.91233038014863
  H   5.94515917473597     -6.93827436479492     -0.04174595204590
