19
Coordinates from ORCA-job 18753optt
  Br  1.27468660019511     -0.19126772793496      0.27080498256601
  C   3.11083955728604      0.05916773130284      0.14071020083860
  C   3.67540969295540      1.26180051634345     -0.09473404165814
  O   2.89910951639723      2.34782091863942     -0.42659536729903
  C   2.85061672352955      3.42824305023009      0.39263968956861
  O   1.85974599762340      4.01043466714890      0.63475220696028
  O   4.05708769538362      3.79106335362761      0.90803749754936
  C   5.19351847366488      3.70341703487338      0.16689577742407
  C   6.09451143976218      4.67726766745826     -0.11417159710229
  C   7.15140482806533      3.97433281143231     -0.75224393798864
  N   6.92368658151089      2.68737090768625     -0.84203463555210
  N   5.70667707952550      2.51262956285832     -0.27849811664912
  C   5.10805529160195      1.26728905747476     -0.15099134931261
  N   5.84349282324570      0.21472952554855     -0.08364796131875
  C   5.25931638074628     -1.01392547202755      0.06276406371247
  O   5.78660991333364     -2.07018905545601      0.07172039914765
  O   3.83478596179066     -1.02790967244887      0.27295772406209
  H   6.01212392482694      5.72278346408063      0.12289539999531
  H   8.06832151855564      4.37794165916260     -1.15126093494377
