20
Coordinates from ORCA-job 18750optt
  Br  1.18246233149680     -0.06909760483740     -0.32553123566175
  C   3.03211843543946     -0.10458548327492     -0.15437717751726
  C   3.73278564742833     -1.24174297018291     -0.07024824398347
  O   3.31490202756176     -2.52828864733875     -0.08244468556298
  C   4.42455811244227     -3.34208946919983      0.02069630643926
  O   4.39904431897795     -4.51356147251529      0.03383970274203
  O   5.54583196809066     -2.56637330633945      0.10337267446109
  C   5.15083206072897     -1.25877584424994      0.05054604689603
  C   5.83911736811346     -0.12416570919075      0.09158585541501
  O   5.15579454315234      1.03997652231732      0.01558634793592
  C   3.79399910740494      1.14195095153852     -0.11710128272432
  N   3.21916961594763      2.26782784066925     -0.20934629942889
  C   3.83074061804960      3.48705533723737     -0.18589848821761
  C   3.26941368063737      4.71221309674284     -0.38193188676778
  C   4.36033838796607      5.59691253832798     -0.23501689216092
  N   5.46958341480790      4.96629517299032      0.02920146779565
  O   5.14717601823125      3.63303827593444      0.06051260554089
  H   6.90576066964023      0.00146331881124      0.18278062668042
  H   2.23774244372335      4.92204794990439     -0.59542242584564
  H   4.37962923015961      6.67289950265555     -0.30980301603569
