22
Coordinates from ORCA-job 18757optt
  Br  1.03816247374806     -0.29384072371032      0.74064548943214
  C   2.80724207341823     -0.23124774786839      0.16060765805776
  C   3.51896304549081     -1.34898127238794     -0.09523260619775
  O   3.09368574734194     -2.62278302971891      0.14406730207772
  C   3.99429624187095     -3.54436725773908      0.65447737214357
  O   3.58568539268147     -4.51759094780633      1.18109351450059
  O   5.31102375935574     -3.27987652038215      0.54199855254133
  C   5.75678004033428     -2.39882531658750     -0.50806191325691
  O   7.02717353962140     -1.88048360564258     -0.24852144164885
  C   7.00267812679728     -0.44602429325932     -0.14572278160840
  C   7.86163605961716      0.17734242657587     -1.15255200627909
  C   8.54489843970702      0.73802539517077     -1.95793667941835
  C   5.53675171283161     -0.10682773799102     -0.28900256137804
  N   4.87772271823556      1.03705633975216     -0.01419256050128
  C   3.45767740030879      1.09223192817095      0.05043582862051
  N   2.79548121501915      2.17158359915958      0.09910493670305
  C   4.86442791428740     -1.23783301014193     -0.49849554261980
  H   5.79553386954694     -3.00287103121865     -1.41637858178931
  H   7.34998638552467     -0.15901965738070      0.85213356240729
  H   9.15737626975111      1.22157423347623     -2.68216897977160
  H   5.37694681280769      1.90738204577629      0.09415094271688
  H   3.38287076170266      3.00037618375298      0.05055049526854
