25
Coordinates from ORCA-job 18758optt
  Br  1.07738645587605     -0.03262329060648     -0.33672986074853
  C   2.95105722728232     -0.02798507227354     -0.18692382202797
  C   3.65861184717883     -1.22168651639316     -0.20052427759630
  O   2.97228127806574     -2.40096836602090     -0.32299079765645
  C   3.47496064974511     -3.55817163923892      0.19664152153502
  O   2.78316989469654     -4.50697268019103      0.33342248689595
  O   4.76132103858161     -3.53332379762099      0.55428672338584
  C   5.65319361919681     -2.60546797928774     -0.06809898536830
  C   5.03970392499211     -1.24206641786889     -0.09931375861879
  C   5.73164401196209     -0.03987245894436      0.00785599013069
  C   5.03076124037806      1.16115571389603      0.02400858369604
  C   3.64957997046084      1.16399502669763     -0.06901070595851
  N   7.13930193225286     -0.03096463739674      0.10300370078436
  C   7.86695834282563      0.72148715979749      0.99400005023584
  C   9.19469987804878      0.51067078688608      0.74732701029144
  C   9.28532573104520     -0.39525823219350     -0.34349591375336
  C   8.00910021533662     -0.71048583893261     -0.71825331938657
  H   5.88454432598845     -2.97176369283349     -1.07252864770449
  H   6.56363277779816     -2.62316378452098      0.52619156123737
  H   5.57716718434614      2.09246589904870      0.08586235250280
  H   3.10302662729135      2.09689238881016     -0.06466503900148
  H   7.36632428043569      1.31080228345763      1.74358456964091
  H   10.01214316152482      0.94969846421581      1.29380743857054
  H   10.18507246361752     -0.76484423394003     -0.80570910429500
  H   7.63903192107259     -1.31854908454618     -1.52674775679103
