21
Coordinates from ORCA-job 18768optt
  Br  2.60358598251428      1.94574138736588     -2.01937481406465
  C   3.06368933318611      0.52995685375259     -0.88867755065060
  C   2.73237541862597     -0.75021089779962     -1.12500919770919
  O   1.86923269531281     -1.11106776306855     -2.12884512827117
  C   0.89011768416983     -1.96839340229389     -1.75300811520642
  O   0.25135313400746     -2.60459570128664     -2.51346815924351
  O   0.72417531019866     -1.94087001306381     -0.39704699448356
  C   0.32536933036509     -3.11397349544034      0.17938734548408
  C   0.72138368758518     -3.56378775988853      1.36258718684722
  C   1.61339041596653     -3.15821390013179      2.49557753524820
  O   1.30880371085104     -3.53825423533152      3.59240663588424
  S   3.28480702470561     -2.44132165594648      2.47763732098379
  C   3.42876495311860     -1.34983408263429      1.11387866900310
  C   3.74285941511155     -0.04516731045810      1.30486617958363
  N   3.70734102607104      0.85048939029778      0.27741092341718
  C   3.19554024626476     -1.83099363937959     -0.24021725444480
  O   3.20620039507033     -2.99132113369346     -0.59209181289704
  H   -0.37367071693646     -3.68244330130318     -0.42060303453223
  H   0.21296533850463     -4.47369063992023      1.66046134306459
  H   4.01859663373986      0.35307044670241      2.27170051587432
  H   4.01711898156708      1.79888085352140      0.41542840611282
