28
Coordinates from ORCA-job 18762optt
  Br  1.16434271772681      0.38635869133845      0.38000433153051
  C   2.90126145782309     -0.33985441795283      0.36880356986440
  C   3.16440000152658     -1.53949646011014      1.02258130579034
  O   2.12983496859038     -2.30437118999438      1.48955537337790
  C   2.05103574842619     -3.64192031896446      1.17828478347487
  O   1.25559518411384     -4.31062176807489      1.74468136934679
  O   2.93384463995325     -4.15579605100243      0.30495246093728
  C   3.24484430021083     -3.64585057796587     -1.00927349234727
  C   4.63343245695317     -4.13477668145488     -1.43573345283714
  C   5.84452260979242     -3.99204606966522     -0.49361252780040
  C   6.44871901687604     -2.58627548366953     -0.28773171848753
  C   5.38402725771243     -1.60498573188933      0.12615165089026
  C   4.44422582049705     -2.05015313683703      1.03942206404355
  C   5.12916503157117     -0.40622768582641     -0.55397161804956
  C   3.91067156067355      0.25660513938159     -0.36439940207348
  C   6.07879552754635      0.13327309896188     -1.47963125265768
  C   6.87373185693404      0.58892001471191     -2.25413899012287
  H   3.15297209051429     -2.56386155533152     -1.05410215581525
  H   2.50509028769330     -4.06964710510035     -1.69042353257377
  H   4.84616228535688     -3.64247247467327     -2.39013592341833
  H   4.53812201264600     -5.20044636743300     -1.65398180539149
  H   6.63335798810034     -4.62739265097659     -0.90142824948495
  H   5.58544197150337     -4.43361066914927      0.47016532346071
  H   6.91062444282220     -2.23788903623166     -1.21223825121132
  H   7.24355201614247     -2.65418473680703      0.45945802765508
  H   4.61320004822068     -2.96770787756917      1.58209525010769
  H   3.72335878078209      1.18873671678375     -0.87877091065473
  H   7.57766791929115      0.99869438550172     -2.93858222755358
