26
Coordinates from ORCA-job 18764optt
  Br  1.01844846960886      0.68906038502428      0.75906843851214
  C   1.04783820441754     -1.13171411462521      0.28458402295637
  C   -0.08806717384753     -1.92259792476210      0.39723246164320
  O   -1.27573194736996     -1.46866738761020      0.92436018377433
  C   -1.38165301132207     -1.31736869684751      2.27729904295789
  O   -0.54131964112219     -0.88097016905815      2.98835424514769
  O   -2.57878926740133     -1.73540941325603      2.69532356170926
  C   -3.04774303091834     -2.94189108617554      2.06909897805785
  C   -1.99388506770637     -4.05043464553300      2.20095444900483
  C   -1.73688638997723     -4.80067195135705      0.89242892992953
  N   -1.33732533786085     -3.93084098476218     -0.20910005435116
  C   -0.10161282089674     -3.21970979459139     -0.13191804613018
  C   1.06278188231505     -3.73661391322329     -0.68393957056457
  C   2.21348304997694     -2.96450022406416     -0.74230294679921
  C   2.20483031341577     -1.66300712131027     -0.27258940027643
  C   -0.74644003863350     -5.87791615886211      1.12593084382875
  N   0.04691236532320     -6.69382695945978      1.26408348854186
  H   -3.28458008448391     -2.74789424775222      1.02453514755426
  H   -3.95626879190900     -3.18751396176032      2.61146819509876
  H   -2.28261189793607     -4.77693872907045      2.96004765601480
  H   -1.04652487882051     -3.62726615902195      2.54641633084430
  H   -2.66278753527809     -5.28782290243866      0.57717981108890
  H   -1.36163470458715     -4.45674508178873     -1.07340837593450
  H   1.05509051097712     -4.74883230243422     -1.06945276042066
  H   3.11828863998695     -3.37330921631887     -1.17123838675013
  H   3.08618818404944     -1.04159723894084     -0.34541624543788
