20
Coordinates from ORCA-job 18769optt
  Br  1.57643341139275      0.16179264901241     -0.54519316058778
  C   3.41625021792067      0.09173275398842     -0.25428587803136
  C   4.16506232608321      1.20265886198276     -0.12761187652484
  O   3.57559399278312      2.43975830095820     -0.21487892817714
  C   4.23723018892339      3.59949403306992     -0.12361961142363
  O   3.71260342173040      4.64550559927829     -0.23747724704558
  O   5.58554022723484      3.52593382720357      0.12267431709538
  C   6.21793108987144      2.33630073178744      0.23275684597417
  C   7.61887583040568      2.46641512759267      0.49374244433642
  N   8.74365531356402      2.53515377707782      0.70401469963802
  C   5.59125830382439      1.15053198543300      0.11336540913333
  C   6.27327942255252     -0.11989776298469      0.22478138690508
  C   5.54275830285048     -1.23948237769585      0.09859930683156
  C   5.82765359996318     -2.65802770304858      0.14375945649517
  C   4.63905402171112     -3.26199796434284     -0.06627260927744
  N   3.56503828266646     -2.35781452924491     -0.24802353959869
  C   4.08592072194930     -1.18207134222557     -0.15259792200432
  H   7.34066225842791     -0.12354648540935      0.40964169354510
  H   6.78714300470679     -3.11867289833732      0.30918112553435
  H   4.43305606143827     -4.32076658409539     -0.10655591281778
