22
Coordinates from ORCA-job 18765optt
  Br  2.21526015373760     -2.51227884503213      0.32288569730104
  C   2.59266143308504     -0.78088611266375     -0.25888820573906
  C   1.67240674402455      0.14067630775906     -0.58051193657661
  O   0.32316185236937     -0.06803643355236     -0.42350479978104
  C   -0.39655095975186      0.99369515251896      0.01361538943604
  O   -1.55931273068839      1.09131836164919     -0.16831683247985
  O   0.37298934220145      1.88745146645907      0.70483410022177
  C   0.17450788217115      3.19836131049367      0.33580577969466
  C   1.07053697608699      4.07052857590882     -0.12502272434790
  C   2.52906360288467      4.20867454121175     -0.43177460393230
  N   3.05787831398378      5.36212081890275     -0.51871533681447
  N   3.43181383937044      3.15667095722699     -0.62473869054812
  C   3.18186925149602      1.83218292043544     -0.70427245220851
  N   2.00975156922175      1.39025261114340     -0.97289376215286
  C   4.32499684846902      0.92295650622890     -0.42171047733121
  O   5.47596060827031      1.28937336168290     -0.33537576536776
  N   3.91869600698758     -0.38550748922504     -0.30989443027414
  H   -0.85606534346943      3.51544377181769      0.43938691247141
  H   0.59889488131381      5.03404908076856     -0.28417162974809
  H   2.38761648800336      6.09948190068785     -0.32680966096927
  H   4.40469082291127      3.44033804396731     -0.61418223194248
  H   4.64417241732146     -1.06286680838904     -0.11574433891125
