21
Coordinates from ORCA-job 18761optt
  Br  1.24532997102833      0.15674872947934      1.01687471765965
  C   3.06869835238441      0.10210577666026      0.56325246052461
  C   3.62541990925528     -1.07233293614503      0.15903407424083
  O   2.92983978619814     -2.21605803088385     -0.03788104800394
  C   3.24663647391741     -3.39637575392604      0.61689477489913
  O   2.44198985298351     -3.96673514324885      1.25789796308599
  O   4.49535461097764     -3.84786673097711      0.44360825984456
  C   5.29352757840759     -3.45419329058887     -0.69241680594268
  C   4.57350060471782     -3.67450750654490     -1.94890927922596
  C   3.99257957869188     -3.85058742087702     -2.97848240575592
  C   5.79715838305031     -2.06353148238434     -0.52384758319984
  C   7.03542615787826     -1.46794063834451     -0.63464201538647
  N   6.98307177773665     -0.14754350475798     -0.34983888460453
  C   5.72177579122843      0.09528224451770     -0.04535086748299
  C   5.03703873337059      1.26561264317732      0.35864797561398
  N   3.76964210590532      1.25352612387159      0.64766887440807
  N   4.95625107192188     -1.05885298332140     -0.14581460383295
  H   6.14656941797788     -4.13110218236741     -0.65243600426208
  H   3.47597138981003     -4.00754985379144     -3.89599310589947
  H   7.95873303857158     -1.95232744128397     -0.91187197243685
  H   5.58248541398700      2.19822938173654      0.43360547575685
