23
Coordinates from ORCA-job 18772optt
  Br  1.03167617281819     -0.56613392282195     -0.34914487433292
  C   2.88472849827276     -0.29276166294513     -0.23857143997852
  C   3.75464397397921     -1.37681236350377     -0.28110914695577
  O   3.29526631271795     -2.64973957517426     -0.44088333252464
  C   4.08557999889431     -3.71095675234598     -0.13494865915713
  O   3.66517042350387     -4.81321225936434     -0.17040108806050
  O   5.34801918475666     -3.43412491710217      0.24538406386416
  C   6.03040787389431     -2.27239017598025     -0.23199257134709
  C   6.62658043616220     -2.48566878641671     -1.63702387276234
  N   7.11417712685838     -1.53891468200510     -2.32245496129546
  N   6.60666711737890     -3.78898951518602     -2.05406874068111
  C   7.11471405584298     -4.29206418909483     -3.26419197720140
  N   7.65983313552282     -3.67164174860042     -4.21016549016578
  C   5.10171498342625     -1.10003123635945     -0.19113900100299
  N   5.56987990687272      0.13531796203521     -0.07718668102234
  C   4.65894376905403      1.09967360811743     -0.05841499360035
  N   3.34166230392420      0.93379232359148     -0.12859969594011
  H   6.85289342750211     -2.11400851083052      0.46518011867951
  H   7.03198773962624     -0.64446267681303     -1.84502951932100
  H   6.24893218103202     -4.47339413469818     -1.40601883965463
  H   6.98031537072997     -5.37160068889811     -3.31963352172366
  H   7.71903797726340     -2.67256380850562     -4.01762860904682
  H   5.01716802996647      2.11768771290171      0.02604283323087
