25
Coordinates from ORCA-job 18779optt
  Br  2.25653563632544     -2.35670861509509     -0.18216420573738
  C   2.85506305930103     -0.58603687254216     -0.04189273247294
  C   2.31414766618478      0.40965973098506     -0.76299791739829
  O   1.27858351080960      0.13845915330514     -1.64409305857012
  C   0.15953335115580      0.89486569178982     -1.63071220676556
  O   -0.65479015134314      0.83681773234153     -2.48861641249411
  O   0.11355976647900      1.69488927735252     -0.54259976368713
  C   -0.54953872594682      2.92299099137649     -0.66374405864065
  N   -0.19552679772449      3.92993446741245     -0.02450073929871
  C   0.95498726638721      3.89291787053487      0.87444300337206
  C   2.21159495803655      4.48632259065299      0.19514989292039
  C   3.50827260222997      3.78328632907947      0.61655913605518
  C   3.49565757144834      2.29837069663081      0.33665661421561
  C   2.71929775157282      1.77412390618731     -0.62933472633457
  C   4.28489501781220      1.45597602511613      1.23556613014510
  O   5.06651226744620      1.86535322958401      2.05406046535895
  S   4.11950925702259     -0.33258649366720      1.10371422618299
  H   -1.37632281698648      2.90185525663362     -1.36454818697463
  H   1.15722703964065      2.87814527911735      1.22040258160228
  H   0.69620445809049      4.49496949259819      1.74431963142926
  H   2.29322671507530      5.54687952739703      0.43253298424127
  H   2.08910536124428      4.43956938969437     -0.88801892473210
  H   3.67130832633369      3.90081697299595      1.69011640821922
  H   4.36772253882665      4.25954198278541      0.13804446531009
  H   2.23323437057830      2.45958638773391     -1.31034260594620
