25
Coordinates from ORCA-job 18770optt
  Br  2.05565688884654     -1.16214269962717      2.63158349133355
  C   3.01107901712072     -0.04173806760064      1.45412643686778
  C   3.48819963957290      1.19674314984167      1.91659328889146
  O   2.74748276087112      1.94006084471093      2.80885157698658
  C   1.76596595115364      2.66391224084021      2.14538573979531
  O   1.13769739348033      3.51360915092521      2.67569714717583
  O   1.68481276319935      2.23422296384363      0.88900751259127
  C   0.94313345175227      2.90142818725321     -0.13270230264081
  C   1.67107558139095      2.64389850109193     -1.45444507376537
  N   1.73124010334373      1.23510649292461     -1.83888343118440
  C   3.04326281276196      0.60383055408788     -2.02964681322206
  C   3.66412981276049      0.49893176288186     -0.66123583491117
  C   4.56075265395647      1.44516422252497     -0.20550408378356
  C   4.43914669490118      1.82907242732586      1.13608930284192
  C   5.01770488063618      3.06612818502856      1.57384722889971
  N   5.47679990049786      4.06779003308309      1.89162226911612
  N   3.06495864331872     -0.34086468689134      0.19445219081102
  H   0.89381926826529      3.96817117615451      0.09175678476855
  H   -0.06397089923853      2.48473560702201     -0.14999377510713
  H   1.15370512350885      3.22931936978117     -2.21990382451852
  H   2.67932678660141      3.05979525968362     -1.37421188164387
  H   1.12600778915520      1.03424492324883     -2.61973564650381
  H   2.87371075441274     -0.38390276354407     -2.45583821130171
  H   3.70517557595096      1.17142671805885     -2.69593566219536
  H   5.17012665177959      2.03005644735056     -0.88097642930133
