24
Coordinates from ORCA-job 18781optt
  Br  0.91115021213536     -1.92229825182701      1.66084369157715
  C   2.24566763827789     -1.23221271206564      0.51856170769701
  C   3.44381240090023     -1.91826713452450      0.34411183378539
  O   3.55387991544932     -3.21546619737445      0.82456831826415
  C   2.80163977281577     -4.13551424443478      0.18145627266306
  O   2.54620771366355     -5.19734873598117      0.62581441838046
  O   2.42475679282518     -3.69541687501345     -1.06622300346097
  C   1.11470413322168     -3.30335040120470     -1.20934934637697
  N   0.88722999817263     -2.24201695064126     -1.81962886472873
  C   -0.44217461726587     -1.69439370350437     -1.76227878145127
  C   -0.56206485416792     -0.45139964637000     -0.85952578497602
  O   -1.66573966182234     -0.10785898529131     -0.53925593398341
  C   0.61693576574816      0.44890927407873     -0.43587413434402
  C   1.99150161384689     -0.13665862354013     -0.29502596348799
  C   3.06994634766539      0.35688942309556     -1.02369296418728
  C   4.29211419444526     -0.28888844304475     -0.95948269242509
  N   4.46033236616644     -1.44828892141813     -0.32714698124192
  H   0.39266426430051     -3.95225543289111     -0.70798183953865
  H   -0.74533790381635     -1.36095452801308     -2.75805523637669
  H   -1.20330506681894     -2.39272503813379     -1.39752236480094
  H   0.28420561733818      0.90157125376942      0.49969375010039
  H   0.64949388970403      1.24792596498706     -1.18095420442800
  H   2.94563536379293      1.22408655360388     -1.65844331700937
  H   5.15574410342200      0.09993235573899     -1.48460857965031
