22
Coordinates from ORCA-job 18794optt
  Br  1.15004742792923     -0.09458685079408      0.20530638547183
  C   3.01920178975974     -0.11616290105667      0.06614795783134
  C   3.69220058657661     -1.28287103857099      0.00443492740058
  O   2.98348983660392     -2.44483220701195      0.04480638901869
  C   3.46600986837287     -3.70677307735127     -0.00973123189661
  O   2.72659973681960     -4.62902839610314      0.04280559087499
  S   5.21466819308694     -4.00015827031705     -0.16195904284714
  C   5.84839240956981     -2.40616425800491     -0.17766888801894
  C   5.12425213098337     -1.27968578478683     -0.10148173357939
  C   5.83944819773003      0.03596352478451     -0.12120462568861
  O   7.04244006591249      0.08524611459881     -0.15943851625665
  N   5.06482368426434      1.20124452397518     -0.09287257069586
  C   3.78187685442773      1.12733134792994     -0.00666059241502
  C   3.04922821475158      2.44922371380730      0.05056624688856
  N   2.57290342818602      2.69481116556952      1.39595491221718
  C   1.30118642999500      3.09734369899298      1.65896637212885
  O   0.43474205256697      3.22794836699481      0.83070681899024
  H   6.92799421815921     -2.33273144291853     -0.25769909509381
  H   2.17320789851693      2.45265337801258     -0.59786784230507
  H   3.74767062179306      3.22080741590476     -0.26965633139852
  H   3.24444260166520      2.71113755300739      2.14669901733238
  H   1.13617375232931      3.28728342333763      2.73084585204098
