20
Coordinates from ORCA-job 18792optt
  Br  1.04435570191934      0.21698528987061      0.34981530596411
  C   2.89331137506335      0.14145326011076      0.12790584317221
  C   3.68464215396137      1.23106448020733      0.09463704821027
  O   3.25412471841553      2.51599256350655      0.22401466614222
  C   4.27151344832825      3.42751183984951      0.14541712243378
  O   4.09246290487128      4.59156872845150      0.22812800024313
  S   5.85236800756661      2.62132270901753     -0.09186946432695
  C   5.07847633619728      1.07031112213811     -0.08586275589644
  C   5.68048139462602     -0.14545488170016     -0.23059296076563
  N   7.05548397286825     -0.15663503848557     -0.39257037307728
  C   7.71900561110429     -1.21398233768086     -0.55836524531663
  O   9.06856638914320     -1.04738905192078     -0.68905965650279
  C   9.82870933605907     -2.15088670260539     -0.91111018731411
  O   9.42304044067982     -3.26105815321302     -1.02157393732960
  C   4.83745827706412     -1.33828166700855     -0.19586204740183
  O   5.22287497790253     -2.48726321563151     -0.30972752832037
  N   3.47620846327280     -1.08273432315047     -0.01190396080673
  H   7.35613121069020     -2.23400405462831     -0.60744413303798
  H   10.87773318115358     -1.84408212472992     -0.97133329471803
  H   2.89505209911306     -1.91043844239736      0.01435755864866
