22
Coordinates from ORCA-job 18790optt
  Br  1.90296933628473      2.25239685070264      1.09850799049230
  C   1.38346607578844      1.42858232755476     -0.54635634280820
  C   2.35387696406454      0.83989465423385     -1.29252042698945
  O   3.55113034956903      1.49307170028580     -1.34333974655561
  C   3.35095248512700      2.84457394174911     -1.70304982168592
  O   4.27937136264647      3.55255815490313     -1.82880876134924
  S   1.66705045745675      3.49577372960998     -2.07936236399926
  C   0.53929391282839      2.25854364819323     -1.42370227953887
  C   -0.70701616036474      1.97829263771287     -1.81389354986187
  C   -1.16570501749714      0.69615690349635     -1.28905398640069
  C   -1.64614944385088     -0.34483225141550     -1.95599506639039
  O   -1.31765117627911     -1.60728086020555     -1.45325208291384
  C   0.05540743051123     -1.69345564440621     -1.29578967273592
  N   0.64825049451233     -2.16525519546723     -0.30600724842668
  C   0.80376663545659     -1.29559191702233     -2.55223845292421
  N   0.52375160452481     -1.79309926525489     -3.67452580870671
  S   2.22981015303519     -0.22397399510698     -2.65991293079426
  H   -1.22513633558752      2.53013681079306     -2.58696048697835
  H   -0.72750709873831      0.44979822935101     -0.32641486231238
  H   -2.12234301955587     -0.35116195956125     -2.92706427987807
  H   -0.00349943448977     -2.45176325836775      0.42442764803289
  H   -0.24908957544215     -2.45736524177809     -3.60968746727524
