25
Coordinates from ORCA-job 18791optt
  Br  0.99719633928592      0.01779747104522      0.37883902263843
  C   2.85681432783123     -0.02719825921846      0.23036619984680
  C   3.61015663987179      1.06499646191455      0.01480926189348
  O   3.11760519496944      2.32851794939404     -0.12658070444538
  C   4.09142122092449      3.26403229166225     -0.31467642607929
  O   3.86135607621160      4.41470590697505     -0.45177893509600
  S   5.71572382768359      2.51741889294939     -0.33858890120031
  C   5.02830227667335      0.93718264779013     -0.05758231657505
  C   5.66972588434629     -0.24907686294160      0.08744766417228
  C   7.15448021153049     -0.43593840464039      0.05147891820180
  C   7.64264425294030     -1.04374770892285     -1.26738425188384
  C   7.49117453903501     -0.08858238250674     -2.45704062620083
  C   8.29673346552346      1.12045793340915     -2.29773484822186
  C   8.97044697165822      2.09634857387657     -2.12526793953065
  C   4.86069446522158     -1.44711410917028      0.29298057636291
  O   5.30375328858146     -2.57393069273101      0.41198888397521
  N   3.48167738330529     -1.23303417217001      0.35430546959052
  H   7.42393582204604     -1.11158664436634      0.86493032985364
  H   7.65579071947676      0.52002546319178      0.22293027075717
  H   7.08587085040796     -1.96103983635716     -1.46432442346858
  H   8.69432452779991     -1.31357701850990     -1.16161825399398
  H   6.44174446293273      0.19596462442836     -2.58121581241169
  H   7.78792262051775     -0.59522829513090     -3.37726398019531
  H   9.56737954528571      2.96596315807928     -1.98707755108345
  H   2.92612508593955     -2.06435698805014      0.50405837309398
