23
Coordinates from ORCA-job 18801optt
  Br  2.55101129978239      0.38836235574472     -1.19327267256010
  C   3.48813949422294      0.11538113984965      0.40036857222953
  C   2.97416556689458      0.08260869250343      1.64466856632692
  O   3.92885744647202      0.03378618788758      2.65956273570251
  C   4.82447978287400     -0.99874239280905      2.43266505590995
  S   5.10896944743498     -2.04530177300151      3.80811288825580
  C   3.40081867794178     -2.25705393664268      4.23409423651373
  C   2.45460642420753     -2.58673650785338      3.36363141413911
  C   1.02013263068274     -2.49246144878094      3.71572096825278
  N   0.21136674091944     -3.43314645750056      3.49258432135823
  C   0.52854905453468     -1.18924442539785      4.36581800007849
  O   -0.26885823347188     -1.20201065563930      5.25413572480729
  S   1.19732445983119      0.37810882076373      3.78840490012928
  C   1.57288908817943     -0.04085840870811      2.06010196281624
  N   0.67405961878074     -0.41222237959264      1.25406872113537
  C   5.34186142461592     -1.07709784438187      1.21130822327893
  N   4.84085099664122     -0.14766761435029      0.27226935099930
  H   3.15948757340505     -1.99178210456040      5.25747465289451
  H   2.69457298842185     -2.88282526456415      2.34739387699117
  H   -0.72590879918185     -3.19297062690010      3.82443943821613
  H   -0.25419396647804     -0.38700852608344      1.67317898434353
  H   6.03364052467547     -1.83508211679785      0.88119394246135
  H   5.21917775861376     -0.15103471318498     -0.65992386428010
