26
Coordinates from ORCA-job 18805optt
  Br  1.01907669775514     -0.32363983848593     -0.26312328595442
  C   2.87394738286960     -0.16962329221897     -0.11798358009396
  C   3.61965857051580     -1.23472529024380      0.22651065959872
  O   3.03186958040054     -2.41604461619755      0.57417460171069
  C   2.96607713444179     -3.39861475859960     -0.42536791694403
  S   4.37663572476334     -4.51853504430606     -0.32339191343124
  O   4.40621213825545     -5.07296629347728      1.00034787013035
  O   4.30988009139144     -5.37204453138747     -1.47673179463031
  C   5.79655664365169     -3.45263613159715     -0.48585140344890
  C   5.88516304926387     -2.37410621178752      0.59984125714048
  C   5.06472575630739     -1.15302725743394      0.29416722678866
  C   5.62290954523192      0.03858862188723      0.05576001001327
  N   4.89102416140042      1.18073554313878     -0.25100806397000
  C   5.62852674668207      2.35338816304097     -0.42524766945095
  O   5.18828947623550      3.43371918762237     -0.69236586567186
  C   3.45840135085064      1.15662482841045     -0.38564937420744
  N   2.72846542945852      2.13917797983356     -0.68882917703728
  H   2.92355593870073     -2.97656056859724     -1.43162678857667
  H   2.09570978693461     -4.02857110727670     -0.24095593760219
  H   5.78410180361974     -3.04039666679792     -1.49530252309080
  H   6.62331605407944     -4.16172744463483     -0.40944092916808
  H   6.92858978863116     -2.07389716773743      0.69632480004654
  H   5.58248401936862     -2.81222335794126      1.55349828317543
  H   6.69435433672825      0.18270283901214      0.09472025650674
  H   6.70473069215286      2.17474181327344     -0.28440898691806
  H   3.25473810030938      2.99366060250174     -0.83405975491470
