22
Coordinates from ORCA-job 18809optt
  Br  1.22022027212005      0.11303888470242     -0.07655900954399
  C   3.10428674448613      0.04207685185702     -0.05480285988549
  C   3.83973542006860      1.17193198340715      0.06258322718068
  O   3.19218297111860      2.37795445925566      0.15280796842735
  N   3.83897555394857      3.56723624689220      0.15890297793859
  C   5.11818195473711      3.51824394575048      0.09315562281976
  C   6.04235869423198      4.63416140573808      0.04638044211340
  C   7.27125423051109      4.08340659621081     -0.02710903573510
  N   7.21255650724455      2.69062217864720     -0.00244262867458
  C   5.91406963630689      2.29328660171453      0.05560101295661
  C   5.28145015315847      1.09163682061154      0.08160243522534
  C   5.90441125834883     -0.23800822350347      0.08521300287964
  N   7.13993977628648     -0.52226618068647      0.28036384248659
  C   4.95565881643547     -1.33149929747575     -0.14184122299506
  N   3.68180642934184     -1.18540326048659     -0.18628746766478
  C   8.58666229897784      4.73486078939228     -0.12350187988150
  O   9.59959209512041      4.09141343358600     -0.19100668027888
  H   5.79049383283183      5.68092385973882      0.06001773716525
  H   8.03119982667540      2.12373258282705     -0.15820106204037
  H   7.70166885244748      0.28948047893044      0.51947792254824
  H   5.37490165774337     -2.32647311095239     -0.24844627769354
  H   8.58039301785893      5.83564295384296     -0.13290806734817
