18
Coordinates from ORCA-job 18808optt
  Br  1.23586829400615      0.24299795393230     -0.36211333353596
  C   3.02981228566110      0.24203334721423      0.09447943601413
  C   3.52026307256859      0.27575294986251      1.34396124483604
  O   2.97599755538042      0.31553771882115      2.59191592530998
  N   4.02307159291151      0.33617523098364      3.56532250220289
  C   5.14527684862179      0.31114247495168      2.94008627361676
  C   6.60731698140118      0.30488853814664      3.03188428483484
  C   7.07390202245850      0.26651276518433      1.74103115835681
  O   8.40732699682177      0.25802358021472      1.77642794107003
  C   8.69335410871655      0.29250019536422      3.11558298723951
  N   7.67175023733784      0.32074825187637      3.89878213896708
  C   5.99869580672618      0.24297533539932      0.73212149377156
  C   4.91378918518976      0.27192328249173      1.51646935180360
  C   5.66665802540130      0.20515466088655     -0.69501829772183
  O   6.41506840275943      0.18155076628299     -1.62264476090607
  C   4.07229003670701      0.19248709172296     -1.00683942273378
  O   3.75630726316331      0.13805967387111     -2.15408513862040
  H   9.73825128416758      0.29153618279355      3.37563621549479
