22
Coordinates from ORCA-job 18815optt
  Br  2.06143159737032     -1.39183948748214      1.95165114911011
  C   2.98429798092496     -0.42927027041589      0.63650730199597
  C   2.65135529144036      0.82869106796415      0.28544229207675
  O   1.53418863334936      1.39013519976810      0.82276392050512
  N   1.58318995316097      2.66734078653951      1.40398496824062
  C   1.89141732165407      3.63836274009716      0.65709076749747
  N   2.38690127559701      3.66729574607049     -0.65824021652998
  C   2.42357694433191      5.01401018097668     -1.07879502361571
  C   2.01314105812322      5.85637440865982     -0.13192425072428
  C   1.68548708697866      5.07669910601945      1.07178269800404
  N   1.29433387373500      5.41098995617419      2.22216663777285
  C   3.16225619249333      2.71049642199852     -1.23563437531484
  C   3.37333046261810      1.45265214343452     -0.79269816598662
  C   4.41503500679128      0.67012223348428     -1.52896422820697
  O   4.99717831374632      1.13634262257569     -2.47815398769543
  N   4.71397185902160     -0.62521452698394     -1.07179646332964
  C   4.04997893273804     -1.09860896203178     -0.08400180755351
  H   2.77470805003421      5.21902328056996     -2.07886432342049
  H   1.94582937875988      6.92815126392956     -0.21598921186649
  H   1.18341434892761      6.42245790943242      2.29285254547250
  H   3.70364735243574      3.02511724489236     -2.12099117127116
  H   4.29032908576802     -2.10932906567316      0.23981094483970
