21
Coordinates from ORCA-job 18814optt
  Br  1.55579267250743      0.77037580629287      1.46529844739272
  C   3.01428286515191      0.06692288969719      0.54798762277861
  C   3.69869126728252     -0.98221381672323      1.01860046568104
  O   3.50955969775960     -1.67292518246872      2.14997297698579
  N   4.51330801224664     -2.63699096793242      2.28166645241673
  C   5.25436076612613     -2.53951931069944      1.24671875322589
  N   4.79835143009593     -1.54824744029021      0.38841783424615
  C   5.29597987271334     -1.06125177884215     -0.80355350731098
  N   4.58699997874611      0.00412664221988     -1.26519527506459
  C   3.45492071208703      0.64824978285181     -0.71303454522017
  N   2.87470824584037      1.63291398226997     -1.25366294002787
  N   6.29131566880243     -1.46693600762014     -1.49329022844601
  C   7.09705293414433     -2.56588392092922     -1.33621795215228
  O   7.93123763619649     -2.84561192670494     -2.15733773974119
  N   6.99608244513066     -3.44951196319864     -0.23540386163745
  C   6.43933858301253     -3.40742049225992      1.03033070435187
  N   6.80119533582985     -4.10247121824733      2.02052220135509
  H   4.93878288293245      0.35512084662233     -2.14574810130519
  H   3.30588175601104      1.92058586592082     -2.12855905393647
  H   7.71014457736139     -4.16026175627271     -0.33370750233458
  H   7.60501266002175     -4.69205003368578      1.81119524874290
