22
Coordinates from ORCA-job 18810optt
  Br  1.23582355896253     -0.01706485359444      0.30247983068211
  C   3.10930048661569     -0.01529499598856      0.16179282093771
  C   3.79754612170423      1.14163758102766      0.07600373614636
  O   3.12703006355975      2.32240972010581      0.10833963357340
  N   3.75229060734957      3.52139400862878     -0.08922506911844
  C   5.02688307671154      3.52975444639447     -0.08770866964325
  C   5.70954652321632      4.84835320278084     -0.19434621112710
  N   5.18934694177294      5.93430957907886     -0.58431275217491
  C   7.12528041014547      4.83111232382174      0.23030227386860
  N   7.76968775903336      3.77583690853051      0.53271192463339
  C   7.14848820305437      2.52284038392298      0.44141009047172
  C   5.85642379460490      2.35454145659758      0.10944663530053
  N   5.17814303527780      1.13263083599955     -0.03510758446119
  C   5.83761580409749     -0.09194387527417     -0.33653407516129
  N   7.00488802602739     -0.23891409940598     -0.80564738444170
  C   5.00743297313736     -1.26408668715368     -0.04031944182281
  N   3.74837251364596     -1.22031691099392      0.17818397404188
  H   4.21368184469689      5.79794488344905     -0.86078975336962
  H   7.62617497811563      5.79418853749881      0.27011890063587
  H   7.79038041223515      1.68607003594132      0.67587267508290
  H   7.47460336858301      0.62971495034357     -1.03871718819206
  H   5.52005949745258     -2.21911743171082     -0.04695436586212
