22
Coordinates from ORCA-job 18819optt
  Br  1.49955679093666     -0.51506298653722      1.86858715430557
  C   2.92344398745520      0.00399595173185      0.78145384240193
  C   3.03461012505746      1.27940505037728      0.36309820561569
  O   1.99445084302011      2.13993776659603      0.56350988128842
  N   2.15091877144478      3.20602974599419      1.48242857775216
  C   2.96946685029983      4.08836483413702      1.08221706362926
  N   3.12678358460208      5.30803267143420      1.68281080006404
  C   3.94516523295093      6.11622807233548      0.88644284841122
  O   4.17333846263774      7.27104248550047      1.06483068995839
  N   4.47375813454411      5.30065700221866     -0.16503454627710
  C   3.94442469810526      4.13556407414727     -0.05721218948418
  C   4.43442562513141      2.99185510405307     -0.77902303526464
  C   4.14329987285355      1.70240112282701     -0.49198378127116
  C   5.00305213889698      0.65628563706468     -1.02765575345068
  C   4.89667118994968     -0.60990244134862     -0.62495557952145
  C   3.88655173994966     -1.03426234262970      0.35508898403689
  N   3.79341793068512     -2.21379104029054      0.82224387425383
  H   2.52113563845922      5.67551746347237      2.39872485280631
  H   5.24122674724576      3.21248362879452     -1.46737154740157
  H   5.77013018198185      0.95586251847525     -1.73066251412288
  H   5.56814539619251     -1.37403095247212     -0.99761978112072
  H   4.51602605760006     -2.81661336588117      0.42808195339066
