18
Coordinates from ORCA-job 18812optt
  Br  0.93814916532580      0.08795688248308      0.07710448318688
  C   2.80310051567324      0.17493012798230      0.07422591456311
  C   3.51456139576056      1.36364295281391      0.07328033750036
  O   3.20740521541609      2.68639476956426      0.07369965985419
  N   4.40162891322541      3.43900486528883      0.07268805211382
  C   5.37395688850835      2.58392038942556      0.07165860557147
  C   6.87766673677709      2.42729568424164      0.07048030007375
  O   7.75346720231664      3.22139494405377      0.06968784314446
  C   7.10843977985881      0.81941024754305      0.07035300020933
  O   8.18928567600413      0.33086320061764      0.06968731571470
  C   5.74018607772484      0.20020667311342      0.07123689482059
  C   5.01768987726455     -0.99124298969896      0.07191279559341
  C   3.60108632748353     -0.98352591459232      0.07331054001206
  C   3.29547525457245     -2.38352850780314      0.07379311366932
  N   4.36513481215716     -3.10567214822488      0.07261544276467
  O   5.45400280992745     -2.25167300264949      0.07154543958606
  C   4.88170180141665      1.26997639504874      0.07192056533412
  H   2.32806155058722     -2.86135456920740      0.07479969628772
