23
Coordinates from ORCA-job 18823optt
  Br  2.35163403287452     -1.29195146382571     -2.21022247166705
  C   3.51266882049597     -0.11505768458716     -1.32867868141859
  C   3.60271556658033      1.20215859886229     -1.58725537411768
  O   4.64608414254329      1.92195944944903     -1.07943110548585
  N   5.81040019137316      1.25928701283322     -0.71107570241940
  C   5.65893018801933      0.06564425398101     -0.29908486647571
  C   4.33694534544314     -0.56512024272205     -0.20783003119316
  C   3.94819439952834     -1.25200842367272      0.87432681826385
  C   2.56921755157799     -1.71897461568173      1.18334889132013
  N   2.28259082696375     -2.88513563953275      1.59834498938159
  N   1.52283310812826     -0.81459640261025      1.02471225879455
  C   1.64189399965550      0.46824427222456      0.52039303701142
  C   0.79086521050754      1.02667880840395     -0.33941410305685
  C   1.07926966739466      2.27062857148919     -1.07988167890277
  N   0.42633228618442      3.34353036338250     -1.11835338039333
  S   2.41332101646733      2.23297466829166     -2.34850894618803
  H   6.56562705137654     -0.43861705027622      0.01663149932347
  H   4.69290340227095     -1.49693486169301      1.62416107057469
  H   3.11186266614137     -3.46862984409644      1.65415043727325
  H   0.62077046113836     -1.26856420232859      0.97193788646696
  H   2.53310357075622      0.99446441467227      0.83922615621471
  H   -0.07982238340386      0.47812136446988     -0.68480004723988
  H   -0.36334112201713      3.30689865296709     -0.47269665606629
