22
Coordinates from ORCA-job 18829optt
  Br  3.16749779892200     -4.89129230996700      3.67768204753718
  C   2.51661510591843     -3.28170694479157      2.85877793551607
  C   3.42857619744682     -2.19473799878378      2.80981310847584
  O   4.73832275748370     -2.47624114580516      2.60826814175733
  N   4.82510785400996     -3.17446183062342      1.34581510159915
  C   3.76183987245770     -3.60714161376716      0.80004932088113
  C   2.36739350845079     -3.48852171371614      1.38798218667599
  N   1.34066662742117     -3.39860070498395      0.65331079047500
  C   0.08554342534991     -3.21569970413738      1.27488864667299
  N   -0.59889914143308     -2.14084266346991      1.29746093419221
  C   -0.12252376594544     -0.94910865488945      0.74039267349628
  N   -0.63141286715522     -0.32087583576350     -0.22181080241041
  N   1.06818731537981     -0.42101681251901      1.30972659185883
  C   1.68603786650222     -0.97218533311339      2.35643687356271
  N   2.99920812252093     -1.01077153390055      2.38800729429462
  C   -0.46254642830208     -4.41307111182083      1.84853678560755
  C   -0.87260737541097     -5.43484278493805      2.31741321981788
  H   3.91594754009530     -4.07127639041283     -0.16736667882666
  H   -1.43924356414113     -0.81976702640730     -0.58630815933005
  H   1.65173125032568      0.06789735923272      0.63935029898350
  H   1.07076902139238     -1.47779730404746      3.09741238082500
  H   -1.24621112128890     -6.33793794137484      2.74016130833783
