20
Coordinates from ORCA-job 18831optt
  Br  1.31858173785903     -0.29419928572503     -0.04927318170165
  C   3.17274458881536     -0.17811725684054      0.03651614830214
  C   3.82123094278983      0.99291818765958      0.06518627455544
  O   3.28443999928249      2.23520806937417      0.04577303167744
  N   4.31568381182780      3.17085017445713      0.03291087709419
  C   5.43993422184587      2.55760995109277      0.04673443301666
  C   5.25575860152987      1.12309785282153      0.07530986977902
  C   6.09849814140827      0.07129622200754      0.11209427567177
  O   7.44000199673920      0.26403320381272      0.16569420932256
  C   8.17042692247786     -0.59078994449933     -0.69863953365947
  O   8.53606394444771     -0.19964610993857     -1.75065270817634
  N   8.46037157725028     -1.80359450751545     -0.10754594474236
  C   7.52972650513200     -2.52091083614067      0.37656260933957
  N   6.15415090877306     -2.37349014246362      0.29296735908557
  C   5.52084857621694     -1.26577709830698      0.15296358288679
  C   3.99164758273874     -1.39821748885393      0.05694192274066
  N   3.44540760955857     -2.53761758338024      0.00091805092407
  H   6.36334438210232      3.11496264591015      0.03812484548177
  H   7.82105355288956     -3.43625671720149      0.88299383022200
  H   4.16308439631517     -3.26635933626974      0.03942004818019
