17
Coordinates from ORCA-job 1883optt
  C   0.88382215136959     -0.01885261876456     -0.17839409218344
  C   2.20135999539810      0.00783769241284      0.01714491119942
  C   2.95693301599595      1.27027715355524      0.34355140638632
  C   4.32172779356111      1.28187289812298     -0.34366666859193
  C   5.14645447028948      0.07127797591768      0.08512990468506
  C   4.34352599669964     -1.19657672012368      0.01617399339498
  C   3.01119045786049     -1.21294801321891     -0.04285159729722
  H   0.28777990730304      0.88461165645592     -0.13881921127698
  H   0.36659236507597     -0.94876459324983     -0.38138677489372
  H   2.36562416458168      2.14449848629008      0.06897007070843
  H   3.11099664667026      1.30945677409094      1.42800342203215
  H   4.85567198675089      2.20556001342234     -0.11670103827951
  H   4.17441031542653      1.24783933257061     -1.42650702822357
  H   5.51519653794779      0.21118322870862      1.10823060517861
  H   6.03537166196474     -0.02556393342700     -0.54242766223819
  H   4.88869015623806     -2.13419678914062      0.00070988044712
  H   2.48165237686665     -2.15551254362265     -0.13116012104756
