19
Coordinates from ORCA-job 18832optt
  Br  1.12556247066970      0.10336863817520      0.00081170361408
  C   2.99133169451391      0.11034658550080      0.00227132329726
  C   3.72116673429971     -1.07097493963909      0.00264365955799
  O   3.23616517266759     -2.31786100928057      0.00219930170911
  N   4.29930547286108     -3.20064724180176      0.00287411578572
  C   5.38881835399560     -2.50567782978534      0.00367497405534
  C   5.10766315188957     -1.10125722182249      0.00360264587692
  C   5.82931930846699      0.08831642058638      0.00423156880571
  Br  7.71022862156008      0.05464608197057      0.00573338908374
  C   5.13746794105775      1.28685966179708      0.00384006178562
  C   3.72562156561291      1.28212544443680      0.00298835637177
  O   3.03316296751489      2.45275268811819      0.00289898851460
  C   3.62011404562633      3.68456393765735      0.00349483232047
  O   2.95145121713859      4.65674789749292      0.00361733376830
  C   5.15475669125959      3.73428679203461      0.00387483591332
  O   5.73190985966754      4.78317726380095      0.00412838669738
  N   5.77751876745587      2.51935471200132      0.00421523872545
  H   6.34307269933146     -3.00910408824767      0.00428831102133
  H   6.79036326441083      2.53997620700475      0.00461097309590
