24
Coordinates from ORCA-job 18834optt
  Br  1.25778927498006     -0.32472632737470     -0.06693910434118
  C   3.08929429680247     -0.01436196943596      0.07834479332799
  C   3.66226084563897      1.11929524463951     -0.38304114094692
  O   3.06032927580284      2.15687724196453     -0.99697229952428
  N   4.02523105859602      3.12686462592058     -1.29951480302323
  C   5.16438877803938      2.69672536683117     -0.89314493090401
  C   5.05337089531422      1.40139622234489     -0.28251945717208
  C   5.86616949702759      0.48009350818201      0.29687668423714
  C   7.35505080824169      0.64288724267946      0.41523456033927
  O   7.84922903921473     -0.39441842716259      1.23291832167416
  C   9.17517649815796     -0.46034037013228      1.44510578449617
  N   10.09676201604958      0.29748173750448      1.04810876812356
  C   9.54297949785938     -1.65539471111614      2.29541959915332
  O   8.73636947871453     -2.44294952947842      2.68766177501714
  N   5.30733949074484     -0.65584918124597      0.75789109856441
  C   3.93387401395913     -1.01493709645549      0.71396049089563
  N   3.48535960643657     -2.10826832475659      1.18568869987452
  H   6.03607365451549      3.31615835353231     -1.04187207571529
  H   7.58574923574553      1.61976906117084      0.85122185446388
  H   7.81262820953345      0.58427790915404     -0.57862561427248
  H   9.79324987524981      1.08263876695459      0.47632032016088
  H   10.62141797743435     -1.72123265995227      2.50574371215473
  H   5.92386475570523     -1.31748494282536      1.21432941382952
  H   4.21104192023610     -2.69150174094264      1.59380354958716
