21
Coordinates from ORCA-job 18841optt
  Br  1.03568610786145      0.28493886527973      0.31501679301932
  C   2.88494264876519      0.04580923791247      0.16436278302124
  C   3.73385429702291      1.11052179904370      0.20971019136771
  O   3.32438588474205      2.37967155114186      0.34973261325531
  N   4.43696004876347      3.23381337485158      0.36815289367983
  C   5.48522673158061      2.50845331256857      0.23939703119316
  C   5.15435643436258      1.11107738632860      0.12781245337040
  C   5.92093647061829     -0.00199602026182     -0.02425828761463
  S   5.17257501022526     -1.55643651679532     -0.08055441376113
  C   3.35679754359893     -1.30473861423936      0.01564727470071
  O   2.71171732410835     -2.31389394198802     -0.03719898590140
  N   7.29787848786526      0.09650581835840     -0.07952794816373
  C   7.97436062974510     -0.69295160926410     -0.79135391252169
  O   9.30739857068694     -0.61067276130236     -0.75993421925354
  C   10.01395028829978     -1.50577801341519     -1.60100081694957
  C   9.76280291211236     -1.23504177544732     -3.02368997159851
  N   9.54642270637938     -1.02579527281027     -4.12786289862266
  H   6.46311054414098      2.96365486541485      0.22984940925487
  H   7.55569718972662     -1.44878055695226     -1.46405702853237
  H   9.75238213668984     -2.54305310320938     -1.38043863985641
  H   11.06855803270457     -1.35530802521435     -1.38380432008689
