19
Coordinates from ORCA-job 18852optt
  Br  0.89651928053943      0.20515163949525      0.39607698860036
  C   2.76110858355540      0.10081460402873      0.23307270725488
  C   3.55625674891959      1.15307722419691      0.48757627981796
  O   2.93925541083985      2.32448638546246      0.79900776666793
  N   3.58761841059573      3.30552281083595      1.53967353899681
  C   4.83896249748650      3.15468809739300      1.70578535564270
  C   5.63696113659213      2.08315426636650      1.14674486661086
  Br  7.46017972128039      2.12612868252279      1.56641441623446
  C   5.01923794005828      1.10391987194730      0.45218674375870
  C   5.62377024386972     -0.00209309970112     -0.25932874211070
  C   4.94233438002755     -1.15008942986150     -0.57445095505360
  N   5.71194019388664     -2.08585095336861     -1.22804343880223
  C   6.97587281843385     -1.56303204751801     -1.49803538144565
  O   7.86160062857011     -2.10618719417053     -2.07581113918238
  C   6.93399632183590     -0.11677432680674     -0.91240656680688
  O   7.80680282016457      0.67868835559316     -1.10412821939566
  S   3.29078579297453     -1.48525932773037     -0.29056297809399
  H   5.31272161500540      3.93282890537971      2.29082422961954
  H   5.37707545536437     -2.96517446406490     -1.58959547231311
