22
Coordinates from ORCA-job 18850optt
  Br  1.63665660264798      0.33534275558179     -0.29273754740477
  C   3.42861004244264     -0.17573475578065     -0.19306233509110
  C   3.82009768101018     -1.46226324251009     -0.02389895893621
  O   2.84897468466702     -2.41972533789909      0.06282603606541
  N   3.15534793561533     -3.66702231851558      0.54723485322717
  C   4.38217115162871     -3.98936520677433      0.63084325945602
  C   5.53135091844335     -3.16852950831875      0.22796127303290
  N   6.60895587201007     -3.81092091552697     -0.02826166747954
  C   7.78389851290816     -3.25884012860391     -0.50448234155549
  C   8.25948579116727     -2.02174916649097     -0.31515389092053
  C   7.56612835021065     -0.97196297345229      0.45286607333797
  N   8.09636596874653     -0.25363883657046      1.34894286261837
  C   6.14333592420320     -0.73354329639500      0.10530991065498
  C   5.74164243293664      0.64888665595821     -0.17792466143498
  O   6.46836974113526      1.60014597824530     -0.34267558974287
  N   4.35831782639115      0.80600073795454     -0.29650003009298
  C   5.21957246510312     -1.74462530550245      0.08158406339585
  H   4.57551285164532     -4.99711190618011      0.97695479506587
  H   8.40705512352780     -3.98367308201218     -1.01540315950265
  H   9.25204524839509     -1.78304083691231     -0.68100035343479
  H   9.07907582752872     -0.49879591250442      1.48118660219635
  H   4.05602904763575      1.75716660220976     -0.46360919345499
