20
Coordinates from ORCA-job 18855optt
  Br  2.30199183333951      3.17609800538220      0.24279766949025
  C   3.39216751046540      2.26185678351863     -0.95970677238900
  C   3.39488041406528      2.72668191290324     -2.34129607550645
  O   4.21066589232323      2.01622647045528     -3.20688940919733
  N   4.96483212007451      0.94943839150058     -2.86100501607033
  C   4.95778966673145      0.57768310859934     -1.63026376797500
  C   5.75291818079755     -0.57074917132563     -1.30767630539753
  C   6.39201649126255     -1.53929855554841     -1.01202881988097
  C   4.16769321298426      1.22374542371296     -0.58472838654725
  N   4.34026548087236      0.80969871540455      0.72016956490855
  C   3.55629908995449      0.00770060299871      1.30465616928284
  N   2.40441231946116     -0.56001591495576      0.78697164906429
  C   2.46936063049576     -1.41954253452119     -0.13184593855082
  N   1.31782276409639     -1.95026428090720     -0.66809737595232
  C   1.04641146064019     -2.78636444370518     -1.49745331182844
  O   0.66440180186628     -3.55998114698569     -2.26275179894582
  O   2.77947498430566      3.64028429813896     -2.79137745978908
  H   6.98130324032255     -2.38956988060350     -0.76003083059276
  H   3.74292748065620     -0.21869019164986      2.35173925062254
  H   3.41336542528518     -1.79393759241204     -0.53718303474534
