23
Coordinates from ORCA-job 18856optt
  Br  1.47989415107375      0.29972146648623     -1.26435668844769
  C   3.22696977596301      0.09112849415059     -0.64943216175073
  C   4.11637824648936      1.09389977987342     -0.53070905719496
  O   3.97267920432163      2.41644486657512     -0.81908403019464
  N   5.16606186467918      3.04284022007058     -0.54921697362857
  C   6.02317120576894      2.17050318645129     -0.12325608483647
  C   7.33659312083168      2.55540229981880      0.26082178196324
  C   8.44376944355246      2.85354765925527      0.60172159292859
  C   5.43330461049686      0.83967674950011     -0.07500666299168
  C   5.84664386002066     -0.40464677420069      0.26617923630841
  O   7.10695300784559     -0.66984888901974      0.69480347907236
  C   7.93777839744666     -1.29887008827264     -0.29017892536558
  C   8.18797092110056     -0.43103701897033     -1.43989031653964
  C   8.37085395153766      0.28243562482613     -2.38293572083927
  C   4.89598711327317     -1.51360188275372      0.20283539065496
  N   5.08168797265353     -2.73286339421646      0.53886680687461
  N   3.63824789609106     -1.15849725839264     -0.29436436259859
  H   9.42826739620109      3.12305282962367      0.90217746052714
  H   7.47795105715341     -2.23128090097735     -0.62960052161066
  H   8.86807336862183     -1.53184563565115      0.22411254538604
  H   8.53969765706963      0.92101546120540     -3.21742210502225
  H   6.00820698296215     -2.85531964322133      0.93402365404315
  H   2.97885879484605     -1.92385715216057     -0.34008833673775
