21
Coordinates from ORCA-job 18869optt
  Br  0.87169423632353     -0.37486542839891      0.24466069483040
  C   2.71805586382853     -0.16595674393844      0.10618622393255
  C   3.54195221279951     -1.22480121692388      0.08595021147093
  O   3.25946949013757     -2.54024059662163      0.15477962332998
  N   4.45641440695723     -3.24997017724452      0.13142541301506
  C   5.39706271192066     -2.39208018843430      0.02159026243397
  C   6.82662834167848     -2.88098344924104     -0.02567120906433
  N   7.28140795947293     -3.21889481152810     -1.35559211008681
  C   7.40455165818851     -2.26009221201806     -2.31322963566521
  O   7.12827566615637     -1.10533824250616     -2.10973673483121
  C   7.74342401851047     -1.94659731367141      0.65266660190309
  N   8.45549554264686     -1.24414767321239      1.20771127454247
  N   4.90951198112351     -1.09897714197706     -0.00886433249686
  C   5.45827425958499      0.17912718889703     -0.08623776578282
  N   4.73715202572859      1.22066029512844     -0.06887913042310
  C   3.31665258725339      1.17187344786048      0.02026648463240
  O   2.67178471545419      2.18600164027910      0.02514100408876
  H   6.82294038355078     -3.80331152171221      0.55633791755124
  H   7.49387751068826     -4.18045017266111     -1.56224435945900
  H   7.77685447516726     -2.64140871874866     -3.27350597848316
  H   6.53551995282826      0.22445303667284     -0.16775445543835
