23
Coordinates from ORCA-job 18867optt
  Br  1.16327596708760     -0.33265800981242      0.28656379601408
  C   3.00854846772731     -0.19045518070906      0.06448436657764
  C   3.81562891803174     -1.26192020256982      0.12094008357205
  O   3.25340620440020     -2.45971893741720      0.41150807030079
  N   3.82492131459897     -3.63476925533269     -0.02692487072465
  C   5.06367220331399     -3.58907460966893     -0.27437458773066
  C   5.92096070884619     -2.40059759662908     -0.10444421619138
  N   7.18100135476856     -2.43652848959513     -0.03901307422819
  C   7.88189695205828     -3.71124147295791     -0.13788553103021
  C   9.31618706258013     -3.52913753906735      0.07590707153238
  C   10.49171418527101     -3.40000246971581      0.24945431102281
  N   5.20273856075662     -1.19662668346852     -0.02955020472623
  C   5.84623758047837      0.07814922111074     -0.17430383730244
  N   7.07622185041764      0.31457963466332     -0.26561614258692
  N   4.95467244881433      1.13574381684363     -0.23014852336899
  C   3.58002327417061      1.14432288634557     -0.11990063641452
  O   2.95068716615880      2.17052921440791     -0.16780697552792
  H   5.49852122466043     -4.52153628057417     -0.60642411488323
  H   7.73324263097209     -4.15670368515975     -1.12754330173037
  H   7.50742081149723     -4.42488496258645      0.60292992761756
  H   11.53746722724049     -3.27785549264619      0.40312592459070
  H   7.64542253561013     -0.51923591232325     -0.18589620746003
  H   5.40113135053924      2.03762200686258     -0.33008132732227
