21
Coordinates from ORCA-job 18865optt
  Br  1.05609844727446     -1.43166993982035     -1.15550601849402
  C   2.60227855581974     -0.64865253848165     -0.46326694419654
  C   2.56497359964732      0.62159844842189      0.00222701137997
  O   1.36462367933605      1.25830004447542      0.10043109457464
  N   1.17993237406510      2.31253084590481     -0.84396233775857
  C   1.74777375492599      3.37869167971121     -0.47906856792979
  C   2.63179406230886      3.58901636792608      0.70836260322559
  N   2.59493886070261      4.65474960367585      1.39747097427681
  C   3.69752727686457      2.61328055528493      0.96782261573590
  C   3.71843081451493      1.33313900049864      0.56754398218551
  C   4.90881767614736      0.50489879112393      0.70060971909171
  N   6.06673326001365      0.79981593365763      1.20739620361031
  O   6.81494037326124     -0.31355461209237      1.06349193418861
  N   6.13672770863514     -1.30652411279770      0.45880225998164
  C   4.95623898621643     -0.82637045376962      0.22529682117296
  C   3.81732751136275     -1.49746726610571     -0.42360838957447
  N   3.82643276313103     -2.67056294906951     -0.89537875675801
  H   1.56918449339974      4.23214414903279     -1.12890099856168
  H   1.86083946427292      5.28827691595941      1.07694014773790
  H   4.56367781281618      3.01837842394294      1.47805434765849
  H   4.74270852528388     -3.10401888747861     -0.77175770154698
