23
Coordinates from ORCA-job 18878optt
  Br  1.09089273772785     -0.07167927974098      0.22493293173294
  C   2.93437363951485      0.11194554834011      0.06525266592148
  C   3.58839021029273      1.26139368242658      0.18887255514763
  O   3.13582614617108      2.51325182167779      0.43478407600957
  N   4.24062452884006      3.37634758639038      0.46797209756348
  C   5.28738722700461      2.67371726781741      0.27354071828015
  C   6.67055893533560      3.24284361508962      0.17342808141904
  O   7.16137429029153      3.12307678424191     -1.13352005724798
  C   6.59187426170217      4.02574306390567     -2.05174896104605
  C   7.20133007275038      3.74923170449302     -3.40813705571306
  O   6.95277310936178      4.41206599742439     -4.37210291667796
  N   4.97260669370262      1.32696341993122      0.08620160365359
  C   5.81564090498162      0.22809932373185     -0.07184259702315
  O   7.00751414555839      0.30504279665314     -0.04740713768424
  C   5.06712656950614     -1.09351827521860     -0.28354107535217
  O   5.67071177737603     -2.10663312444843     -0.51398555344279
  N   3.70050755226124     -1.03088132134477     -0.18892661826460
  H   7.34347441621760      2.68263771660342      0.81865087698009
  H   6.61912465450582      4.28602804105209      0.49847565602677
  H   6.79683136785272      5.06610537249657     -1.77305477917711
  H   5.50382738908236      3.90756778743702     -2.12813138209522
  H   7.88856887959356      2.88368673097296     -3.44129231475450
  H   3.21866049036917     -1.90903625993241     -0.32742081425590
