21
Coordinates from ORCA-job 18879optt
  Br  1.21363318530619      0.15021942159312     -0.19460310804931
  C   3.06715641673780      0.10614146189309     -0.08581927823064
  C   3.83600756184470      1.21269051819045     -0.19532086532603
  O   3.42626259077570      2.47000947024516     -0.38257926201563
  N   4.55292750480969      3.29879003807760     -0.45357697071077
  C   5.61170335144780      2.58819795409604     -0.31318138663990
  C   6.96748755795148      3.22560855384433     -0.37656726834748
  O   6.85905998672113      4.62083557121363     -0.59602142858055
  C   6.58429309412626      4.99403564416973     -1.85502358738288
  O   6.47215421931581      4.25299374899479     -2.78142979206965
  C   5.26004848209332      1.18941671525788     -0.12637133306243
  C   5.85975417625601     -0.00483577846237      0.07440604311532
  O   5.12534237245872     -1.11396251182352      0.18711539226924
  C   3.72224391182067     -1.17399622563571      0.12412609376946
  O   3.21320471287093     -2.24097761645900      0.24733765509665
  C   7.31554500665900     -0.26598923778779      0.20413511124222
  O   8.13325865340878      0.61021485700326      0.15901064618188
  H   7.55262538926481      2.75039048919938     -1.16289165876819
  H   7.48712493758400      3.09603589229103      0.56945772594292
  H   6.49078379407969      6.08389714615734     -1.89892389355848
  H   7.57738309446745     -1.32571611205847      0.35172116512426
