26
Coordinates from ORCA-job 18877optt
  Br  1.24912840477080      0.06037137216003     -0.20738694672229
  C   3.10840028407659      0.02976806030609     -0.06639492947034
  C   3.78415078138380     -1.12596675718347     -0.09561453790972
  O   3.35639142224375     -2.39687300221453     -0.21548368738726
  N   4.47237671832957     -3.25070924021753     -0.19847967307841
  C   5.50350518128638     -2.50561605918313     -0.08485730846473
  C   6.90384487831145     -3.00860997039314     -0.09257131873220
  O   7.58591103170611     -2.42992568632992      0.98709005130711
  C   8.94678241368049     -2.81386309433766      1.03589124753050
  C   9.58026488258649     -2.11743420014286      2.22969940000654
  C   10.99940060904814     -2.44101596621242      2.32707962539736
  C   12.16138074643800     -2.72429932279826      2.37566091954716
  N   5.15922914325701     -1.17038769701841     -0.00645738476339
  C   5.86563005404060      0.00817783323821      0.13079812307921
  N   5.29560129735745      1.13965344503800      0.16628954364920
  C   3.88046869109628      1.27075921204240      0.06990721858526
  N   3.31446012370142      2.40440716964561      0.10219648373922
  H   7.37780676239473     -2.73079645304538     -1.04411036202275
  H   6.87243011043286     -4.10026738310557     -0.02775663362624
  H   9.45531238701456     -2.51898482672400      0.11085853185157
  H   9.02910476605549     -3.90098077547486      1.13988432287568
  H   9.06131959413932     -2.42168463659047      3.14050291859226
  H   9.45115688902634     -1.03816182769322      2.12632793765590
  H   13.19555389068350     -2.96886733763563      2.42737222048586
  H   6.94037870613665     -0.09920095378995      0.21521230352856
  H   4.02101023080210      3.13050809766011      0.20034193434591
