23
Coordinates from ORCA-job 18885optt
  Br  1.94564502945761     -2.03328157814744     -1.56131718146973
  C   3.42956678842253     -1.17547944936275     -0.82263061718386
  C   3.68869827824816     -0.89106360171743      0.46055031237354
  O   4.80389898556014     -0.07632842865145      0.61825884279301
  N   5.95407558317424     -0.75859526472802      0.08184844663974
  C   5.71462850124350     -1.11027754025757     -1.11651337014600
  N   4.46952216911117     -0.88541859102882     -1.70297382778617
  N   6.51973709803924     -2.06183481206862     -1.78514893398651
  C   5.78129823461856     -3.29300153890311     -1.49247857916639
  C   5.75835489281600     -3.77754846336522     -0.25677725740166
  C   4.59264803023824     -4.50897748719926      0.27265275428078
  N   3.96884994430247     -5.43840403356467     -0.30470536657444
  C   4.17858542864916     -3.83008227506359      1.58824511298940
  O   4.94790950078887     -3.69987751770270      2.48182989513499
  S   2.47666853440401     -3.12477329130327      1.68557537533942
  C   3.06179368209063     -1.40286555948387      1.70396585122252
  N   2.97345755225231     -0.75841377950191      2.77795589159640
  H   4.36697072766887     -1.18871700057329     -2.66064011577647
  H   7.43960403477301     -2.07452426288093     -1.35403422856268
  H   5.08868430423740     -3.62137799190471     -2.25800984672473
  H   6.40734268547718     -3.33373928612596      0.49051503295903
  H   3.10415348280431     -5.67870881150439      0.18430224342145
  H   3.33690653162231      0.19129056503904      2.65752956602832
