20
Coordinates from ORCA-job 18881optt
  Br  1.01202684348464      0.19552621124841      0.36185476190905
  C   2.81553610042719     -0.25075778750007      0.23760876151150
  C   3.23040293317080     -1.53165468609502      0.24051408596491
  O   2.33932384288060     -2.54171680195416      0.42707926435347
  N   2.16762952128712     -3.32507781195407     -0.77417209596810
  C   3.12049853701925     -4.14416799523249     -0.89072191901624
  C   4.26062482745049     -4.20049349620483      0.10406300334740
  O   4.46372232928459     -5.17710159851472      0.75996926399114
  N   5.09499543464421     -3.07664533800285      0.10322847149373
  C   4.64792608680636     -1.88848816400528      0.11231681924003
  C   5.66523667679181     -0.75260605784726     -0.03156691945385
  O   6.83480349031472     -0.97492877096028     -0.18002022145253
  C   5.09847730617401      0.58769596540441      0.02866332606691
  C   5.64598656803115      1.84329470139276     -0.00659790726846
  N   4.67294009739371      2.79282277472126      0.10156320794984
  C   3.54462594743982      2.14283898287014      0.19909565143898
  N   3.73299220892462      0.78990971251642      0.16166027230315
  H   3.08228457831911     -4.83130410758301     -1.72960617125013
  H   6.69019050930940      2.09206170667964     -0.10101334003151
  H   2.56477616084635      2.57879256102100      0.30108168487070
