23
Coordinates from ORCA-job 18884optt
  Br  3.79771819390418     -2.68483757061448     -2.00562739876792
  C   5.03502376515481     -1.25734581056194     -2.01340372848931
  C   5.77671555752898     -0.93595088596109     -3.07896757417052
  O   6.69036041380198      0.07060463123412     -2.91446565170710
  N   7.52877530830618     -0.15707104196601     -1.77955847924275
  C   6.91623352732632     -0.60941804449150     -0.77222828359391
  N   5.49989762332938     -0.77301184869523     -0.79064963876516
  C   4.71986625290937     -0.54094799567225      0.34175881875135
  O   5.17006033973983     -0.14511654060134      1.37246029698611
  C   7.83715586757276     -1.46242852483266      0.16302743386415
  O   8.05278631181689     -1.21208218655000      1.30918358146917
  C   8.51970453890621     -2.50464474412325     -0.65862429091135
  C   7.99989048864892     -2.84009219956686     -1.85335079679732
  C   8.66483650133487     -3.16567609073579     -3.08170576329242
  C   8.12580001751553     -2.82484685737099     -4.27637079815652
  N   6.81700036057121     -2.56827572793778     -4.64559464494915
  C   5.85246917850209     -1.85462291683738     -4.25621977599580
  H   3.65793855982469     -0.75270179864547      0.15786369316805
  H   9.52472224050073     -2.76097155625971     -0.34596859968873
  H   6.95700152771495     -2.61512064261185     -2.00641677683543
  H   9.70491805889792     -3.46514697304155     -3.07436168806214
  H   8.76852265336521     -2.88223338521623     -5.14895083814166
  H   4.90460271282690     -1.99806128894073     -4.77482909667162
