19
Coordinates from ORCA-job 18888optt
  Br  0.98517672974673     -0.29021206993268     -0.20535564173259
  C   2.83218741252734     -0.05863302424703     -0.04568625555270
  C   3.60913181635372     -1.17218102359676      0.11630810175032
  O   3.24988798633626     -2.44718217427350      0.21784485695435
  N   4.40439235172759     -3.23154199684045      0.32981973691197
  C   5.38845745879962     -2.41905309915603      0.29370695141278
  N   4.95388135946799     -1.11216855854514      0.16950343218968
  C   5.70884089752251      0.05698558537902      0.08893241696496
  N   6.98884285769905     -0.15729946904104      0.07934231269237
  C   7.90258363088809      0.82743110565860     -0.16637671278830
  O   9.08320080596497      0.64601190375977     -0.24370185827541
  S   7.33534697732782      2.52556712545599     -0.45164805729690
  C   5.67717064893990      2.51595322160414      0.18149755235051
  N   5.16533887990572      3.53128344338013      0.72831040879756
  C   4.92155435679517      1.24836688138712      0.04383723274813
  C   3.53099712624913      1.16891449154750     -0.07538152639756
  Br  2.48642810887241      2.69805086142054     -0.35454810987654
  H   6.43099158197326     -2.68416973683423      0.35185147916502
  H   5.82358901290266      4.30787653287407      0.78074367998236
