20
Coordinates from ORCA-job 18892optt
  Br  1.07555496467966     -0.15511365561529     -0.12433728296797
  C   2.93471923116252     -0.07777806040594     -0.04363066902741
  C   3.58076381629514      1.10148796568871     -0.09635877348803
  O   3.11504231610505      2.35408820668024     -0.20506641297855
  N   4.20293047826747      3.24104278112878     -0.22528260609135
  C   5.25225639005399      2.52361221046492     -0.13139392305493
  N   4.95091889218718      1.17941012073527     -0.04656854578117
  C   5.68512662149448      0.02334915387061      0.10587086296450
  N   5.14131683944502     -1.12105913556727      0.14974530152020
  C   3.75013193719024     -1.28201661638047      0.03419564974258
  N   3.18142064813231     -2.43008069322022      0.02689084686364
  C   3.89041568822461     -3.60551351552281     -0.04889652085327
  N   4.93728360543025     -3.84267426943534     -0.75913149391369
  S   5.34266150764511     -5.46684385843906     -0.64144869125012
  C   3.99902053897701     -5.87725361358532      0.44486208560338
  O   3.70887686376016     -6.94360958028958      0.91682285900929
  N   3.34389730757902     -4.67798553637078      0.62626281016659
  H   6.25413650326656      2.92097252931183     -0.12065956939159
  H   6.75873138822909      0.14901765065816      0.19867083355904
  H   2.50179446187510     -4.60505208370645      1.17645323936884
