22
Coordinates from ORCA-job 18895optt
  Br  1.20939918318988     -0.46206856673649     -0.39211704636951
  C   3.07733392292416     -0.38670842971035     -0.20441398417223
  C   3.63716820189632      0.83057953899992     -0.16865364266594
  O   3.05672393236741      2.04121066325214     -0.24641678077649
  N   4.05298361919039      3.03471385262961     -0.15321513155520
  C   5.15896378622781      2.41747183057451     -0.03150101370283
  N   4.98859394067191      1.04772888040339     -0.03472452307308
  C   5.94196501317187      0.04459954755371      0.09064435368584
  O   7.10425194102946      0.33637090024500      0.21553598224636
  C   5.37255853124562     -1.34143006986461      0.05476170392665
  C   6.34556399938662     -2.27773854990581      0.19607856048794
  C   6.28828408604955     -3.70337546518061      0.23841038435048
  C   5.22397168243824     -4.51429168635800      0.11486494147995
  C   3.81531448350979     -4.17061179894242     -0.11940581115758
  O   3.01931505509853     -5.08503791788019     -0.26559708868472
  C   3.32981736542865     -2.79489481161285     -0.16747388514746
  C   3.92959468490597     -1.57164148005481     -0.10305360623689
  H   6.12318072305024      2.88831364402942      0.06636567808795
  H   7.34038824689398     -1.86090587071102      0.30379982540492
  H   7.24822827642031     -4.18326719545986      0.39041832551991
  H   5.37925164745174     -5.58586249759116      0.17426702454404
  H   2.25514767745148     -2.79615451767953     -0.29257426619210
