21
Coordinates from ORCA-job 18890optt
  Br  0.90356002952985     -0.39984044230261      0.00700246073107
  C   2.75202071038674     -0.19615931102414      0.12301766895656
  C   3.60020231453663     -1.23537152042153      0.07550917497158
  O   3.28071139144918     -2.53589818041052     -0.04571482172534
  N   4.45928455813454     -3.29642364046219     -0.10862917185140
  C   5.41579554696340     -2.46115574683113     -0.02101991431364
  N   4.97396393167287     -1.16096165371610      0.10517477535487
  C   5.67815330135090      0.02223736490801      0.05490337478016
  C   5.08462272947332      1.21782084692417      0.14592442514780
  C   5.84217905115206      2.45864317275291      0.06979023100590
  C   7.13603441017946      2.77208224833010      0.41442845606559
  N   7.35628350696923      4.07076139853316      0.10780686204958
  N   6.27879867981441      4.57570858921435     -0.39520954684643
  N   5.36065929912190      3.62176708076014     -0.42485444164218
  S   3.34923722862492      1.40384713287263      0.46830982615953
  O   3.17684831274931      1.70653503840229      1.85624487610934
  O   2.83074155898982      2.34083182889872     -0.49533367664352
  H   6.45836767196620     -2.73580691234471     -0.03850129967091
  H   6.74399831857559     -0.07541958375326     -0.10226480769608
  H   7.89154843190841      2.15882089859596      0.87478495020599
  H   4.42298901645120      3.79898139107376     -0.76336940114847
