20
Coordinates from ORCA-job 18901optt
  Br  1.09842572226650     -0.05061838995026     -0.38415566911189
  C   2.94410851137697      0.00974764166047     -0.14391698107755
  C   3.69742004496228     -1.10412978983719     -0.21262819834029
  O   3.35218136867696     -2.38265272174195     -0.43063912282403
  N   4.50690461578834     -3.18141199541070     -0.42853010880573
  C   5.47475258197632     -2.38521536953973     -0.17189899870986
  N   6.78956890622874     -2.76683560483197     -0.03321880079557
  N   7.80006227745039     -2.10857057126674     -0.70938582816967
  C   8.83265121007256     -2.78529924434503     -0.40894897291639
  O   8.61331037281417     -3.84311391023409      0.40117164551647
  C   7.26058115367327     -3.86638579776088      0.67207962039408
  O   6.70270027783323     -4.64682343391282      1.36166581508119
  N   5.05493918467762     -1.08276649023732     -0.03098884102886
  N   5.77758725387547      0.00214658324867      0.28987778776881
  C   5.09542153538005      1.08730882244860      0.36182038229162
  C   3.63988927912707      1.25509439392398      0.13677405915294
  N   3.03967296727737      2.37960017842516      0.19468184753386
  H   9.83809383475761     -2.59046309655395     -0.74136645855281
  H   5.66686215453741      1.97138784608899      0.62298107500366
  H   3.68786674724758      3.13500094982680      0.40862574759001
