25
Coordinates from ORCA-job 18907optt
  Br  1.57387051738364     -1.28824905066814     -0.14710279641522
  C   2.81207285430930     -2.66920946003014      0.21775634842973
  C   3.55798221113021     -2.57163525830811      1.34899108554348
  O   4.10457843621641     -1.41931233161695      1.71763648071914
  N   5.18976478574615     -1.29975450725611      0.70030343345571
  C   5.09341462386074     -1.99552487738749     -0.37675438768492
  N   6.18371057425555     -1.99971717492987     -1.21723875916005
  C   6.72834496298865     -3.33211557394945     -1.55476414302677
  C   6.64378158478384     -4.39407689527883     -0.43009354505373
  N   5.65949983798697     -5.40345105768089     -0.76192656112595
  C   4.84806145157712     -6.00120635783656     -0.02642194552816
  N   4.51937577470277     -5.88406541179763      1.36835728910090
  C   3.88845464895988     -4.83569700735127      1.99671994738212
  O   3.07102075766305     -4.94489335604486      2.85594120104936
  O   4.39033122906730     -3.63006630481284      1.58823532271920
  C   3.85332502021078     -2.81085123547802     -0.85153749516779
  N   3.79600078460249     -3.18637745469208     -2.04345535980320
  H   6.89799700576801     -1.38138928950978     -0.85640707336164
  H   7.76990054689122     -3.15583760271219     -1.81609414850797
  H   6.22088417143319     -3.72087689672294     -2.43339709304735
  H   6.51080667029683     -3.92692673354758      0.54887924057871
  H   7.59263741196044     -4.93568555906597     -0.40859028312330
  H   4.27433008660518     -6.81077292791585     -0.47826617060395
  H   4.13869391004299     -6.74801083692644      1.73228718995559
  H   2.90816014155717     -3.64729683847992     -2.24405777732395
