20
Coordinates from ORCA-job 18902optt
  Br  1.16345506267753     -0.13455042300865     -0.14147516540708
  C   3.02441010502288     -0.08150554405057     -0.06055104029855
  C   3.75445174589350     -1.20508828933498      0.03200299204138
  O   3.18535395674151     -2.42889977849756      0.08270938742291
  N   3.96744794979785     -3.54872538064161      0.26319298166840
  C   5.22783628711044     -3.37655604466008      0.35032853788920
  N   5.92843982680792     -2.17608717055441      0.25808189386968
  C   5.19997602077134     -1.14051395252426      0.08933156819371
  C   5.80047079694212      0.20342299665566     -0.02044138395524
  N   5.13369484436138      1.27646174950906     -0.07166998815978
  C   3.69197576154807      1.23737329246205     -0.06226773309730
  O   3.09669713910436      2.27388034139586     -0.05807464220255
  C   7.30449907161587      0.28302316527171     -0.17275911758240
  O   7.88291474688845     -0.25148530937032     -1.06546003989010
  O   7.84853871703489      1.05205754229624      0.78493804330914
  C   9.21592765437514      1.30742604992647      0.72758514737067
  N   9.78059797951680      2.04757573975082      1.55271430554408
  H   5.80812066903210     -4.27606250042246      0.49965709382631
  H   9.72208338566311      0.80585380421820     -0.08875350807306
  H   9.12710827909467      2.42639971157885      2.23891066753058
