30
Coordinates from ORCA-job 18910optt
  Br  1.31941916040428     -3.30389668147939      0.50793813287373
  C   3.13069405001625     -3.00673699571440      0.87619153622825
  C   3.77996077328023     -3.63290553505111      1.87501503349246
  O   5.03517074121864     -3.26779568530259      2.24192753166248
  N   5.90252567572510     -2.84322303564897      1.24700862505699
  C   5.37493887256086     -2.42918402257971      0.16293254705898
  N   6.21827452393631     -2.21106051427610     -0.94149196574612
  C   6.16400434762697     -3.36968555524967     -1.85676334862313
  N   5.93430204014112     -3.22088182228054     -3.08064513194129
  C   6.43250425539354     -4.73243840945690     -1.25458910833024
  C   5.20111334262593     -5.44715128787033     -0.62653990511503
  C   5.52772792689307     -5.99717924740827      0.76669558342884
  C   4.39537366448428     -6.66661701724104      1.55474405692820
  C   3.12798235585597     -5.87220089462276      1.83987434357052
  O   3.34014685133388     -4.65076812773737      2.60252717061450
  C   3.91630151716031     -2.22085385608586     -0.05534457454989
  N   3.43059044370743     -1.53440631268977     -1.00384718944948
  H   7.17383256105917     -2.12044562582572     -0.60148239445986
  H   5.77166363865058     -2.23757531547802     -3.29922286176757
  H   7.19944579615545     -4.61896917526419     -0.48371260750688
  H   6.84930062004955     -5.34504714067360     -2.05141892383408
  H   4.89564262929405     -6.26393470372316     -1.28335826033078
  H   4.34480660367108     -4.77365703534253     -0.59409738084066
  H   5.96732076219076     -5.20740837200445      1.37474404944075
  H   6.31992880001459     -6.74329235872572      0.65235135764535
  H   4.05384599870734     -7.55840298286919      1.01754038667005
  H   4.80758457627181     -7.01594180648940      2.50390118100432
  H   2.60179912774722     -5.62252130011919      0.91981088653576
  H   2.45820451013262     -6.45965954941586      2.46381706433075
  H   4.18359383369154     -1.14115963337413     -1.56850583404690
