25
Coordinates from ORCA-job 18912optt
  Br  2.53217536395547     -0.82356980256361     -1.45691617789391
  C   3.30731589313885     -2.57369136361273     -1.27594495793201
  C   4.56444949939237     -2.68877234864933     -1.83723179067602
  O   5.41990525816959     -1.67826444243001     -1.83931112067468
  N   5.73072200574937     -1.45485939365040     -0.40048339558911
  C   4.95380376277280     -1.98047823813159      0.45991980060164
  N   5.34845473960221     -1.95988541481984      1.80372133272934
  C   5.82725295248511     -3.07624307009059      2.14726842460462
  O   6.11088649011347     -4.00277340715531      1.21679067644767
  C   5.94537116170357     -5.39568387486355      1.45372849749201
  C   5.88583236731663     -6.01254403748332      0.06296302016650
  C   4.52936922474046     -5.78562517837690     -0.58747646521141
  O   3.53417777511548     -6.24487268440056     -0.09722257277616
  C   4.43199516221485     -5.06554722702371     -1.93669389640595
  O   5.18038552073120     -3.85253480417382     -1.99349652558827
  C   3.65684887774235     -2.78644617423401      0.17144521484185
  N   3.13361194687792     -3.45740143365563      1.08909294099506
  H   6.06550104603951     -3.30769049849672      3.18262766135127
  H   5.01481139918881     -5.58116050952302      1.99463941274511
  H   6.79330620923973     -5.78328087185031      2.02153621093599
  H   6.00512205923917     -7.09530120664759      0.14158011742627
  H   6.69647223662542     -5.60673863750544     -0.54227437257721
  H   4.87267810737658     -5.71855369428129     -2.69386186504902
  H   3.38117850938614     -4.87302662092538     -2.14852784594524
  H   2.33237243108286     -3.98305506545527      0.73712767598165
