20
Coordinates from ORCA-job 18917optt
  Br  2.62759226785622     -2.94413857078622      1.58781965201873
  C   3.44023188733718     -1.76613953286036      0.42288508409615
  C   3.42397758219672     -1.78701028713524     -0.92278373153948
  O   3.96702978383962     -0.61757031056393     -1.46733680490700
  N   5.32798619781352     -0.54809170773814     -1.09034515387511
  C   5.44205647066099     -0.81632735497462      0.15025453906131
  O   4.31940057553595     -0.88250540339889      0.97627776322546
  N   6.57248133127483     -1.57150249976468      0.45651919191970
  C   6.32655638083491     -2.63359058530766      1.11853996577340
  C   6.76804452437984     -3.87175967773062      0.42081955570549
  N   5.78770607483998     -4.65839699063476      0.29421608560663
  C   5.61504179539629     -5.60197003733210     -0.73205754682917
  O   6.26689619307342     -6.57985335268382     -0.90830953606207
  C   4.34063872072547     -5.29045889384222     -1.62512351242612
  O   4.02103363017816     -6.05203020556384     -2.48358102763193
  N   3.66141325893364     -4.16623652027135     -1.19006613805164
  C   3.69773937010179     -3.01118253647058     -1.69890213901691
  H   5.48893206445723     -2.76453105630705      1.80373421141359
  H   7.67748473354744     -3.87158345285305     -0.18143937056307
  H   4.16075715701673     -2.79512102378083     -2.66712108791795
