21
Coordinates from ORCA-job 18927optt
  Br  1.07407853874191     -1.21407731630150      0.66211306671440
  C   2.90093101559805     -0.97165068112197      0.38666514962707
  C   3.88604736359393     -1.32743089225745      1.23641394927446
  O   5.06923486951360     -0.61215787733335      1.03742207050454
  N   5.75457621239562     -1.20076489075954     -0.05847728116936
  C   4.99798780375206     -1.28837621723988     -1.07685019360277
  S   3.43749912521254     -0.38144612072058     -1.15973492605718
  N   5.08358551030855     -2.37917700034243     -1.97540928170583
  C   5.44835611264282     -3.38335227666052     -1.28071900143954
  O   5.19169027005736     -4.66192938773593     -1.57323881639305
  C   5.17471693861938     -5.49606637823347     -0.44861611636027
  N   5.54990175043104     -6.67401344684997     -0.61270987766576
  N   4.75050442646862     -4.88494362106895      0.75284518293490
  C   3.77894682959877     -3.87516314686011      0.80847835181466
  N   2.77174392934016     -3.80767923653887      0.06050124288127
  C   4.13200336485097     -2.71928091409730      1.78710143794282
  O   4.80042137303953     -2.96608000323756      2.74941609042763
  H   5.93212348020231     -3.25609708181693     -0.32078534854274
  H   5.39508766343227     -7.23305702352419      0.22143347578473
  H   5.34875303998107     -4.99307901360466      1.56113794720319
  H   2.66081038221937     -4.62317747369479     -0.54198712217315
