22
Coordinates from ORCA-job 18921optt
  Br  0.79023899765026      0.21949571689568      0.63376305465430
  C   2.60922720119294     -0.09423134207417      0.32218647030651
  C   3.11180699973908     -1.33952607330447      0.28045632125022
  O   2.33809241687449     -2.43541016530827      0.51951073162199
  N   2.09590440545423     -3.15151086524118     -0.68888376619364
  C   3.08055671909502     -3.85789938694865     -1.04478742649190
  O   4.29306933486788     -4.00825902920749     -0.48263415257068
  C   5.02091051563114     -3.00805246505670      0.14723417985568
  N   6.10540503657855     -3.29548129980057      0.70181266948448
  C   4.53807229779727     -1.60838844096735      0.05914887667172
  C   5.42440190420687     -0.61600271293458     -0.12559799683956
  C   4.95607488071416      0.74813689109275     -0.12463441044237
  C   5.61170502502841      1.90148372976418     -0.29728371675926
  C   4.59145150875898      3.00888436722182     -0.17772694115603
  O   4.80481432647462      4.18457426725454     -0.28143223843404
  C   3.26928675574370      2.34711161577920      0.09049848703862
  C   3.49558432374666      1.02910392775214      0.11918006539404
  H   2.93951331509177     -4.49417201103813     -1.91010755226775
  H   6.30969472622776     -4.29156171260778      0.62897180731864
  H   6.47617645738737     -0.83853519702903     -0.24608195468699
  H   6.66077684016337      2.06659799397114     -0.48524610267686
  H   2.34023601157545      2.87664219178692      0.22365359492287
