21
Coordinates from ORCA-job 18938optt
  Br  1.47233689124283     -0.68613125083351      0.58830446733585
  C   1.90415022952508      1.05683908447146      0.03288736541913
  C   2.84714117538569      1.27391576123862     -1.07496001741046
  O   3.41163030205194      0.41603497080059     -1.69402591384658
  N   4.31664922948823      1.34020049411952      3.32345632931865
  N   3.36619820670231      1.72048443411614      2.96072476597580
  C   1.28741372124573      2.10703380293548      0.60618033197734
  N   0.85177757260171      3.07622668071758      1.12318603367049
  C   0.09969549962862      4.21855026356787      1.28419058141015
  C   -0.07497867339814      5.13464039926536      0.30475337222055
  N   0.38655887090981      4.93151174876117     -0.97935101842648
  C   1.60325225997714      4.58114701711847     -1.14537796667825
  N   2.67703885014934      4.80453574316303     -0.30011813213490
  C   3.50177189601871      3.68059293075201     -0.30025388800380
  O   4.45147629106049      3.49159188727204      0.40020685983526
  C   2.88891379960685      2.76419798363509     -1.32893942203903
  C   1.93887170516312      3.43323689867824     -1.99683634668008
  H   -0.32805312502987      4.35244082570037      2.26643632616508
  H   -0.72005951484019      5.98203862817836      0.49917254656499
  H   2.66737220589046      5.46297653121978      0.46343322401981
  H   1.22984260662005      3.03393516512216     -2.70606949869351
