19
Coordinates from ORCA-job 18937optt
  Br  2.57210812242718      2.59051236532062     -0.89923065095846
  C   3.98656435637592      1.40310407052938     -0.63178164682601
  C   5.05824817135984      1.34302023823290     -1.60025285947784
  O   6.02658453780173      0.43178071322128     -1.30596482711070
  N   6.04662718596307     -0.34637560962116     -0.14531051948336
  N   5.13445972244129     -0.24680257216382      0.65886882921605
  C   4.03528343524920      0.60828205386524      0.46041487795564
  N   3.15679622299788      0.60301252015965      1.50977613432960
  C   1.98709645836259      0.15872869415024      1.39093888729780
  N   1.41126344959431     -0.46662140178541      0.27056607231772
  C   0.22126684571007     -0.76578297181008      0.62112658703496
  C   -0.09594377967417     -0.35901823767918      2.02604202808593
  O   1.12188573918423      0.23248290200642      2.42695415805161
  N   -0.71694904325852     -1.39558253073816     -0.14568868978983
  C   -0.62583077492193     -1.79478049208493     -1.29801291144510
  O   -0.67451213971184     -2.21289150722598     -2.36250280415671
  S   5.21010797659842      2.21317412593125     -2.95863616481785
  H   -0.33665847108868     -1.21745806795096      2.65644783367294
  H   -0.91039801541063      0.36621570764269      2.07324566610361
