22
Coordinates from ORCA-job 18939optt
  Br  5.45786180169502     -2.99018879809788      1.10886391605134
  C   4.04136961551893     -1.76452454169583      1.19842867334634
  C   2.79096836111896     -2.12747479829062      1.93019909644680
  O   2.67015944015103     -3.15932180341611      2.53152354960290
  N   5.05697645509960     -2.93061387280662      5.04957461749598
  N   4.79067916191325     -2.07150244794585      4.44088739011552
  C   4.13775239889380     -0.57381071370315      0.63287056553266
  N   4.12364025376994      0.55745763057041      0.22068281687673
  C   3.57269364950398      0.99946235774163     -1.01376246818159
  C   2.34526986090397      1.51904174238092     -1.15860714173509
  O   1.37529075404169      1.77732966495583     -0.24170590525793
  C   0.88386609783187      0.93465386507120      0.74221608037045
  N   0.03732885065417      1.34798214217442      1.56690188150674
  C   1.46871320729679     -0.41473123690340      0.76359747760464
  C   1.77929987160731     -1.02588656456105      1.89926280555637
  C   4.43356230515668      0.90497136937739     -2.14695529050913
  C   5.17808487768876      0.81701749804050     -3.08142839950285
  H   2.07016370014426      1.87526157082473     -2.14207661117405
  H   -0.18679950111630      2.33018007385580      1.41521143152625
  H   1.79925754586866     -0.81493558292565     -0.18785523669124
  H   1.43553135935967     -0.64089801894641      2.85321105220278
  H   5.83432993289782      0.74353046429975     -3.91604030118365
