20
Coordinates from ORCA-job 18930optt
  Br  1.17156085879870     -0.84087803594856      2.77379774705271
  C   2.59054311799119      0.32539388526907      2.32748783671535
  C   2.53602378833614      1.69302324975753      2.96305698009228
  O   3.33471688248817      2.08178490490416      3.75350132429256
  N   7.27089750499950     -4.13547280644072     -1.63095279295857
  N   6.71722390724847     -3.23386959344073     -1.38759695664423
  C   3.51169780785288     -0.03561792783468      1.48957937986307
  C   4.32035032765866     -0.37488391790919      0.52424127983842
  C   4.06362988338451      0.00132821552192     -0.89181748525770
  N   4.65004862694175     -0.41552667933769     -1.91111962438493
  O   3.15815821881792      1.04112412741111     -1.04551307479199
  C   1.92823538205581      0.89360822038411     -0.52690019383637
  O   1.24901485573132     -0.07693320593591     -0.57929569848940
  O   1.61216191022145      2.07034504173756      0.06370139327833
  C   0.57542376061028      2.08036105564187      0.99047387906635
  N   -0.61831932630650      1.80647880868822      0.78021010792726
  S   1.11382142254264      2.72492494488725      2.56204427596194
  H   5.22568835385077     -0.93828034049981      0.71990284408153
  H   5.35456057323444     -1.11035885225256     -1.67434515975263
  H   -0.78743785645817      1.53344890539705     -0.18845606205398
