22
Coordinates from ORCA-job 18948optt
  Br  0.93559271932510      0.13392133005377      0.89384576201353
  C   2.69121663633681      0.09838916202388      0.30806830324246
  C   3.41541925773389      1.18708321376221      0.03328336735517
  O   3.15271738411767      2.49483080880960      0.08176761962481
  N   4.38031815657890      3.15915005992216     -0.35088085398882
  N   5.25124558797336      2.35434918721065     -0.62091104155657
  C   4.76524322558331      1.04273758512019     -0.41798422585138
  N   5.42070996405412     -0.02852312043804     -0.60075732456444
  O   4.70511572600525     -1.15485941501855     -0.31619139493837
  C   3.36730325222257     -1.18858554579125      0.10654882299341
  N   2.80565664156057     -2.29269658063317      0.29564054517539
  C   3.54095135063502     -3.52954778161082      0.06645784257163
  C   4.39207414711905     -3.85262364032731      1.31768425690782
  C   5.19604896129791     -5.05519445649557      1.14089112406277
  C   5.85760725639752     -6.03754185255522      0.96869827375698
  C   2.59844417399715     -4.61679674156973     -0.21096865697001
  C   1.85321886430256     -5.52700592364215     -0.42621672064072
  H   4.22061449060787     -3.43772533196455     -0.78583257086156
  H   3.71913983923405     -3.96839045215991      2.16874294905615
  H   5.04678639450052     -3.00203330905667      1.51566831380762
  H   6.44028051289554     -6.91488333486068      0.82071048292367
  H   1.18629545752123     -6.33305386077878     -0.61826487411956
