19
Coordinates from ORCA-job 18945optt
  Br  1.10213637954978     -0.44170017121520     -0.37442726480989
  C   2.95540961856793     -0.35393826727741     -0.11570809110719
  C   3.56827813543400      0.83529111838717      0.02187986145032
  O   3.05427153979468      2.07233143448300     -0.00916695280271
  N   4.14490566555572      2.96665444287390      0.26522136838369
  N   5.18574201510930      2.35005180279605      0.44068953669818
  C   4.96239334979100      0.97050091560159      0.30566927331591
  C   5.81424933191569     -0.06738758789281      0.37833220777667
  Br  7.62482499120373      0.13561690950616      0.71690786345368
  C   5.26132516592273     -1.39136768259669      0.04878895610225
  N   6.09506903529843     -2.32370723982557     -0.22170527554371
  C   5.65262530962415     -3.54358440024647     -0.73380324564755
  O   5.83003608522113     -3.88969373852877     -1.86047855036359
  N   5.05966840357286     -4.34315295815718      0.25179610035196
  C   3.89964442558044     -3.97018750365588      0.63892905342246
  C   3.20417403517027     -2.75468871039332      0.28667809733390
  C   3.77487726131035     -1.54448811364733      0.01866966494555
  H   3.37018285568082     -4.63385242603711      1.32032226805539
  H   2.12618639569695     -2.78269782417412      0.38840512898470
