21
Coordinates from ORCA-job 18958optt
  Br  1.53206430719679      0.04907529765732     -0.43023845171208
  C   3.38098169397386      0.05180541967018     -0.15720199565706
  C   4.09258508748218      1.20791380546175     -0.00515317974961
  O   3.41754015600514      2.38466155844789     -0.05923438576635
  N   4.08962191165719      3.62487035485485     -0.00460430160185
  N   5.28816314275056      3.67230143564528      0.18071412407602
  C   6.13181532094697      2.52038733487378      0.36418901028737
  N   7.35099385438187      2.69235961279485      0.63479898030490
  C   5.50690034084859      1.21204365820936      0.21440909402638
  C   6.22445055175195      0.05374615280386      0.27879875770521
  C   5.52399928254524     -1.15860393188363      0.12482457335081
  C   5.87771191019374     -2.49565717266550      0.12818206248584
  N   4.73067277812794     -3.17242331133027     -0.08193239723141
  C   4.58759754403521     -4.57741046657523     -0.16470011083445
  O   5.51142388042718     -5.31489054044626     -0.03618296553378
  N   3.63549499019277     -2.40029576058690     -0.22303721332610
  C   4.10377271283493     -1.16728613889207     -0.09776499235372
  H   7.56242410181587      3.68942716948232      0.68104552176553
  H   7.29166819724724      0.09572025569159      0.44942532914614
  H   6.81223249205026     -3.01443568217976      0.25699743013231
  H   3.54488574353448     -4.85530905103338     -0.35833488951412
