18
Coordinates from ORCA-job 18955optt
  Br  1.03143008155451      0.06878529269260     -0.07270391676357
  C   2.89213056884399      0.09579480170507     -0.06644247100288
  C   3.63771540546319     -1.04156584819225     -0.06014402787845
  O   3.04321688743232     -2.23950401581135     -0.05676096171101
  N   3.79361738002708     -3.47038718008901     -0.05211973560475
  N   5.00169896854930     -3.41108435888381     -0.05121732877543
  C   5.73968019669232     -2.21250114391498     -0.05405184018568
  C   7.14996633156259     -2.33441035319599     -0.05340498199576
  C   8.34327809020693     -2.43179118919175     -0.05283118537611
  C   5.08553005812519     -1.03281662704237     -0.05774904095559
  O   5.79276409790155      0.11104442517367     -0.06010790999863
  C   5.11458030011941      1.27457334896870     -0.06411190228988
  N   5.64013368504109      2.41449477024831     -0.06563463778524
  C   4.47157771872443      3.29438927581852     -0.07031479614723
  O   4.53903365201289      4.47466649161286     -0.07255164242275
  N   3.23537195191608      2.53841391499238     -0.07166527377655
  C   3.61544209170226      1.32141758631033     -0.06778604902298
  H   9.40483253412480     -2.51751919120094     -0.05240229830752
