21
Coordinates from ORCA-job 18952optt
  Br  1.25408460069535      0.01078971847781     -0.80687450289717
  C   3.06517402973956     -0.16712053652862     -0.39566157919081
  C   3.59517129879473     -1.38914078158221     -0.20795863311929
  O   2.87516950543615     -2.52100533078878     -0.31492242990870
  N   3.09853499753141     -3.47652183550939      0.77204094631600
  N   4.24178392420104     -3.61202517659979      1.11800365843580
  C   5.30364174902919     -2.87414885871943      0.48940456101682
  N   6.41518943431810     -3.45103913290513      0.42046407763262
  C   7.46986790943371     -2.83216819801485     -0.29222045911776
  N   8.00280951843585     -3.32408824329593     -1.31614397367542
  N   7.98338129264264     -1.64801476058263      0.27019781810406
  C   7.23323978053607     -0.65114266519526      0.46122264305007
  C   5.79468819511008     -0.48584847257879      0.17042604631133
  C   5.29630450334483      0.75057974486073      0.00869494784167
  C   3.89815833059060      1.03512687834867     -0.31140771326515
  N   3.40013025884817      2.19361476593125     -0.49237176810916
  N   4.94766577698768     -1.59725759272603      0.06871835935412
  H   7.54587915070614     -4.19646999814141     -1.57651838387738
  H   7.69255706331957      0.25153054833993      0.86045813317572
  H   5.97496622757433      1.58919490606524      0.10264989418766
  H   4.10860245272474      2.91815502114464     -0.39120164226504
