20
Coordinates from ORCA-job 18967optt
  Br  0.97095047980059      0.28255011525600      0.14172763626645
  C   2.82574048997617      0.13930810115997      0.02378280902031
  C   3.59301129537939      1.24581420948921      0.02586209668719
  O   3.27552091946796      2.54322464666049      0.09515658857763
  N   4.48887940199679      3.26456648226832      0.05181006510158
  N   5.43117070329406      2.48016648894144     -0.03376446384691
  N   4.95365436234735      1.21499852397216     -0.05486013005650
  C   5.65927227009001      0.03827732688031     -0.11379822169392
  C   4.95399324032506     -1.11624917713470     -0.12216232602992
  N   5.63481756271038     -2.31980394694964     -0.14914981522431
  C   6.98407222520104     -2.42169055571297     -0.13439093448218
  N   7.82828012913234     -1.46569007255127     -0.12988587698316
  S   7.43167676590732      0.10716933193814     -0.15350706454649
  O   7.86021933474859      0.70719318114971      1.06402785609851
  O   7.81386647307702      0.65718257716115     -1.40987046153232
  C   3.46194319951019     -1.16566511345408     -0.09193173601988
  N   2.74948770811935     -2.22262699155404     -0.15196984716068
  H   5.10015009320298     -3.17101372891495     -0.10337747074083
  H   7.35894326849045     -3.44094558413418     -0.12250668792794
  H   3.26635007722288     -3.08876581447105     -0.25819201550661
