20
Coordinates from ORCA-job 18963optt
  Br  0.73484720107954     -1.29145501878269     -0.76794993965627
  C   2.45852422707152     -0.64664635356117     -0.42342523724239
  C   2.63226850801584      0.66877846929497     -0.11981980508051
  O   1.58970742806829      1.52036170896825      0.05014043673881
  N   1.57722523519520      2.50137582894255     -1.10798371637367
  N   2.29989051588865      3.42726637404752     -0.91070661719806
  C   3.15851060640144      3.54755911363246      0.28084490978453
  O   3.08288664889978      4.52527354722960      0.95300796751543
  C   4.20122135788375      2.50623964814577      0.37395698656712
  C   3.95790166565171      1.20379788912674      0.13094211891034
  C   5.02027769670877      0.20366991499116      0.11505294389973
  N   6.27599178251129      0.32670798227908      0.31891062069215
  C   6.83449460947720     -0.97639096034332      0.15032579571847
  N   8.03841263650287     -1.31579470878238      0.26062339505214
  N   5.80085521555319     -1.86523122741426     -0.17035844942905
  C   4.63089959393587     -1.18838541443228     -0.21382248674222
  N   3.45202392119307     -1.60694925981733     -0.47700028954149
  H   5.18862376856750      2.84153280413355      0.66634850247140
  H   8.60707531531491     -0.50450664184724      0.49387442094462
  H   5.93536206607956     -2.84920369581098     -0.33696155703109
