20
Coordinates from ORCA-job 18964optt
  Br  0.84013266553004      0.28680752948582      0.13056468456160
  C   2.65406936484724     -0.17746044396907      0.05821937378229
  C   3.06029413077002     -1.42227757533790     -0.26689149948859
  O   2.07958097656482     -2.29090380408656     -0.67048320499089
  N   2.74420854166425     -3.55301247451812     -0.87621707940167
  N   3.17437986042275     -3.90079174243715      0.19498752779963
  C   4.57268314093934     -4.27262415777128      0.15015258119494
  O   5.09584264276301     -5.29953046310706      0.40776156233065
  C   5.18669173833602     -2.92788363467213     -0.08111160028573
  C   4.53617849543807     -1.75110056902724     -0.25467317992496
  C   5.53421781288321     -0.56651113873429     -0.29919258781369
  O   6.68954778650195     -0.75734063854013     -0.58907433780757
  C   4.98337688014848      0.71272868262965      0.08246145081646
  C   3.62430708572637      0.86192101312387      0.27024834562688
  N   3.42511426593526      2.14664994918555      0.58506227746050
  N   4.56961794499540      2.85709503272813      0.61555022559235
  C   5.51988820501763      2.00132142206391      0.30436822525039
  H   6.26927516474967     -2.90100159723978     -0.03896328678625
  H   2.54383900981619      2.59946907027898      0.77150733218584
  H   6.54875428695023      2.31744553994482      0.25572318989783
