20
Coordinates from ORCA-job 18966optt
  Br  1.11921182780896      0.03563683944076     -0.47115787315077
  C   2.98114272336971      0.05048305733756     -0.26213168968329
  C   3.68036860616928     -1.11022876363274     -0.09576286576859
  O   3.28827782331766     -2.36672838598413      0.07127305102623
  N   4.44482071807686     -3.10040311969935      0.39786788493750
  N   5.42437791181886     -2.36324256189936      0.38170873872556
  N   5.03056036460454     -1.09934182028427      0.03449787261427
  C   5.80534390662144      0.05044063771521     -0.05621127772369
  C   7.17244719185306      0.10223283830766     -0.07222896703513
  C   8.06454675208186     -1.03934795126459     -0.36222817946092
  O   7.70687433538838     -2.06532924949219     -0.88708615108188
  C   7.82482753972544      1.41739946700546      0.04420927940235
  O   9.03701755334793      1.53434458665838      0.09847093116755
  C   6.95210794777226      2.60520921079876      0.06333643240162
  C   5.61948175048344      2.51697678198723     -0.03025069681361
  C   4.96242388997567      1.23524083012716     -0.10403757701864
  N   3.65624040200832      1.19741870005155     -0.21987356898437
  H   9.12091574754257     -0.84597606239299     -0.13147761688159
  H   7.46058028185097      3.55819721907181      0.13254433674594
  H   4.97743272618273      3.38801774614809     -0.05046206341854
