23
Coordinates from ORCA-job 18970optt
  Br  1.00184958943027      0.52244489676867     -1.04968125150411
  C   2.78348045263956      0.21191936057094     -0.57850100917171
  C   3.58507875835297      1.17399617436782     -0.05749905619607
  O   3.36948979350037      2.44535535724833      0.23956800517634
  N   4.59427392230947      2.94613992813611      0.76747519368446
  N   5.42681977788360      2.04445697933989      0.76697518677829
  N   4.87532787623696      0.91608990609226      0.26938092020299
  C   5.50766073375375     -0.35952824256632      0.10070631743448
  N   6.71904151595432     -0.45298246887056      0.42999383575161
  C   7.39722825163952     -1.71990995386210      0.31144566575334
  C   8.64890514098029     -1.58737509947702     -0.56932260285389
  O   9.58058279390790     -2.54557517522918     -0.06716633225491
  C   9.29089022281362     -2.87523487286397      1.21365420382592
  O   9.97429133951651     -3.60663641035048      1.85732275636983
  C   8.01989040215013     -2.16380172047548      1.63222058264250
  N   4.65936048832453     -1.31944152926699     -0.41208666826822
  C   3.42904864123222     -1.04881609440327     -0.71910265141937
  H   6.74844820874687     -2.50378791854211     -0.08449369975414
  H   9.07031772591477     -0.58499821847081     -0.47160383819037
  H   8.46347226017550     -1.80939680965465     -1.61779806961573
  H   8.30235761734292     -1.28946567118115      2.22344484024212
  H   7.39799124351732     -2.81253013354367      2.24275248392699
  H   2.83719324367653     -1.86792228376625     -1.11968481256036
