22
Coordinates from ORCA-job 18989optt
  Br  1.33303980068705      0.60450581441242     -0.03940926773420
  C   3.12651008029366      0.08251542719590     -0.12382081410565
  C   3.51092621282800     -1.21104645951804     -0.06715114153759
  S   2.50583381197164     -2.62258193797786      0.09436179181333
  C   3.90592024148542     -3.69047034328117      0.03584777428547
  C   3.76325156235716     -5.02736691356315      0.10515653509851
  C   4.80370613473971     -6.02444398616123      0.05400305674670
  C   6.13259855842843     -5.88492034410564     -0.05131025612990
  C   6.96339723692550     -4.67267748547130     -0.14066667364829
  O   8.16735766424550     -4.75870277489080     -0.20280240088793
  N   6.39772474732788     -3.40199806327364     -0.16166369179502
  C   5.13024220720196     -2.91939403471899     -0.09620874580036
  C   4.89480163912807     -1.56726908041999     -0.14966809223107
  N   5.90091922780521     -0.64419609532321     -0.28166155354801
  C   5.55798809729611      0.58901139190408     -0.33355958784964
  C   4.15820535823401      1.10901264266514     -0.26538416587873
  O   3.94380895641959      2.30100208262839     -0.32808284911489
  H   2.75442764989701     -5.41171250806730      0.20417470098491
  H   4.44182145032755     -7.04473491990733      0.11196643474487
  H   6.74864978995595     -6.77436723993691     -0.07070122365362
  H   7.10181929660235     -2.67045617751064     -0.23873635108015
  H   6.32605027584221      1.34929100532129     -0.44168347867873
