23
Coordinates from ORCA-job 18988optt
  Br  0.88499226607749     -0.03726066455836     -0.07068013037528
  C   2.76561853537509     -0.05681208131646     -0.06929750653988
  C   3.47362247682250      1.08391492010473     -0.06857005930818
  S   2.72792322793845      2.66998393116890     -0.06849307754474
  C   4.29470307647224      3.43327254017532     -0.06796425655477
  C   5.37171613501185      2.53504753859468     -0.06779071848404
  C   6.66755670389257      3.05866695108047     -0.06745776915933
  C   6.86047804856665      4.42912355674245     -0.06732285180856
  C   5.77481075402319      5.30167494066466     -0.06747895695956
  C   4.48186184894220      4.80883807248333     -0.06779508212033
  C   4.92886086200757      1.13649558346384     -0.06801570720162
  C   5.70820166879870      0.01248277938513     -0.06779018472273
  C   7.13046296354838      0.05205802160952     -0.06747980999436
  C   8.32748375405968     -0.04966852794484     -0.06774823578334
  C   5.18146793152329     -1.37070312852898     -0.06778683830656
  N   5.84127864321997     -2.45130529650252     -0.06690219415604
  S   3.42951702875320     -1.64107173668031     -0.06922834133307
  H   7.52194640465248      2.40226592804286     -0.06734890347641
  H   7.86729601402093      4.82377194032442     -0.06711415053341
  H   5.93967715910473      6.37126261679128     -0.06736524106907
  H   3.63059882726249      5.47695847533216     -0.06791644896107
  H   9.39037033821479     -0.10658274892401     -0.06824940219151
  H   6.84455533171150     -2.27541361150828     -0.06620413341615
