20
Coordinates from ORCA-job 18985optt
  Br  1.27241247758069     -0.12646017390165      0.47986849846901
  C   3.11449215123849      0.08428531590936      0.23936839885578
  C   3.69950340701156      1.30006372912820      0.18102184903158
  S   2.95097056302524      2.88204906804407      0.30365754146643
  C   4.53072868555480      3.59904411728448      0.11223925751864
  C   5.15208738514305      4.81183317527925      0.06563650738401
  O   4.94172756497613      6.12860217741991      0.13049916136759
  N   6.25874065663100      6.71404103920901     -0.02645197039373
  N   7.11557916570080      5.84018762034076     -0.16425655378144
  C   6.52713581574751      4.58594527268976     -0.12189251305272
  C   6.78490704164980      3.23728851778683     -0.19292352853572
  N   5.54933253719781      2.65798499128897     -0.04645440879515
  C   5.11942084631987      1.33737875197666     -0.00961592680844
  C   5.88097867088213      0.22371206573191     -0.12787344942514
  C   5.26016119587914     -1.07937796371414     -0.06002308747454
  O   5.81807236174008     -2.15197876039866     -0.14421628442761
  N   3.86235711356641     -1.04008965026755      0.12405223693483
  H   7.68002013707029      2.65861107633805     -0.32539921928033
  H   6.95039432384531      0.25429720920964     -0.27226477646976
  H   3.41597789923984     -1.94641757935488      0.17102826741671
