23
Coordinates from ORCA-job 18980optt
  Br  1.22798949625440     -0.54817647088344     -0.53988014104182
  C   3.08407144103293     -0.35743039839582     -0.32754068472704
  C   3.55918442748051      0.89748638849629     -0.17354039465004
  O   2.80812706791347      2.01122073161977     -0.20375996988721
  S   3.76013924457876      3.34278425151635      0.12958027207292
  O   3.72936019431112      4.17275326280283     -1.01554111925361
  O   3.34362927976229      3.83652687423278      1.38931900093656
  N   5.17247765335165      2.52037757334932      0.24548248292116
  C   4.93916585268347      1.26133463883517      0.08578568624709
  S   6.16760632975514      0.06947419572043      0.20197011153049
  C   5.27835144087171     -1.37912242002414     -0.02730154723652
  C   3.95603015089904     -1.50688424808595     -0.26571554756314
  C   3.45258942664345     -2.90525589555027     -0.49175434106178
  N   2.74133839922570     -3.29253942359497     -1.45955485741020
  N   3.94526461950119     -3.81018786788933      0.45531900791477
  C   3.30331553729676     -3.85838787611936      1.76070549644942
  C   3.15663739227965     -4.96993676819620      0.78075242546750
  H   5.89941837734905     -2.26393530472347      0.02756286468268
  H   2.52314757509865     -2.53763537119394     -2.10488671004055
  H   2.44079794182042     -3.21760793411346      1.90708383887517
  H   3.96876336319466     -3.95699587534040      2.60750134235087
  H   2.20974721847915     -5.06491607441479      0.26491050051239
  H   3.71584757021680     -5.88394598804738      0.92550228291087
