23
Coordinates from ORCA-job 18981optt
  Br  0.97297298862917      0.21540757394190     -0.05715355218183
  C   2.84942809949988      0.13714409926443     -0.03176038219457
  C   3.56604017631645      1.29937535478859     -0.00860213071771
  O   2.88865230806501      2.49944727896184     -0.01532528664938
  S   3.65753971773901      3.78238867512432      0.55703843713889
  O   3.93951231221817      3.51963277796765      1.92680856365467
  O   2.91574411167709      4.91566908255493      0.15474291659161
  N   5.00295962025642      3.65475741206534     -0.36056784194455
  C   5.82547602861766      2.49414237977961     -0.00714634502456
  C   4.98687310591478      1.23700954787267     -0.02170293193836
  N   5.64145913758845      0.11325314254828     -0.02419426075924
  C   4.95912643466859     -1.05444158499432     -0.02097068001686
  C   3.53989721482193     -1.09795878671008     -0.03649182635325
  C   2.91695076128500     -2.36544098600954     -0.04201184000175
  C   3.69707079949410     -3.48232074130947     -0.02466572669228
  C   5.10244245967524     -3.33148245579440     -0.00722243820727
  N   5.71316904283872     -2.17835046165310     -0.00848030828607
  H   5.48891907430111      4.54042036074197     -0.43409411846113
  H   6.28245304773741      2.59620589382270      0.98148368660080
  H   6.61220176491634      2.38429710247201     -0.75049256428801
  H   1.83756311486279     -2.43180487463904     -0.05559019350830
  H   3.26136478123519     -4.47177751213937     -0.02363250090306
  H   5.73518389764140     -4.21357327865694      0.00703132414222
