23
Coordinates from ORCA-job 18986optt
  Br  2.18990755423860     -1.88160865660031      3.03981374194335
  C   2.96899419354103     -1.02201294856623      1.56257266119834
  C   2.36922905384705     -0.01699803334109      0.89593738270514
  S   0.70619972057156      0.43763440696070      1.35055760266554
  C   0.59874347405986      1.94857500748177      0.52075247524970
  C   1.46629789148284      2.44224061250707     -0.38038616545367
  C   2.66079318887819      1.77852588925904     -0.81696851052558
  C   3.07502980747050      0.63494019231187     -0.22497817983612
  C   4.29596215475037     -0.03452239542225     -0.63620943558595
  C   4.80161161869258     -1.06659011857410      0.06136499427497
  N   4.20032127248913     -1.52856489216652      1.20279226916335
  C   6.02136595912086     -1.77978652192155     -0.35330625014381
  O   6.44086105193195     -2.73287696953999      0.25032247925587
  C   0.88882096337577      3.73057811357927     -0.78643119787070
  N   1.35946611873185      4.55072615453711     -1.62709050812314
  C   -0.37979973657051      3.80919220920408      0.02705100063625
  N   -0.53917756251753      2.78506351170596      0.76703341682405
  H   3.24095148706117      2.21619217340622     -1.61877102208290
  H   4.81455037127710      0.30734504165452     -1.52296365214081
  H   4.56937944899108     -2.36464356142866      1.63156138546855
  H   6.51673367396564     -1.38612685634063     -1.25567392814558
  H   0.75251933823043      5.36609222284764     -1.72626067360504
  H   -1.08676104361957      4.63062541844609     -0.00271988587180
