19
Coordinates from ORCA-job 18999optt
  Br  2.34016012657169     -2.52002044409129     -1.15391878779553
  C   3.31712763319528     -1.06924573696383     -0.47963177485407
  C   2.88644992704960      0.19543248969658     -0.54862448572853
  S   1.34454900105928      0.52837804095533     -1.35564767934805
  C   0.98069951702872      2.02108855439046     -0.60689781662428
  C   1.81347152610400      2.79434907123422      0.10624438928234
  C   0.97664871469249      3.95853683018260      0.57235530851781
  O   1.28977721544081      4.86213057437305      1.27445461897777
  N   -0.37128597202603      3.79217696318862      0.03015359936797
  C   -0.35052487202916      2.70780425018827     -0.62663303376076
  C   3.21391510260598      2.51463445647055      0.26253181376131
  Br  4.33949702664345      3.91734747556999      0.81697669973585
  C   3.71975146674583      1.30792191953918     -0.07737944739093
  S   5.45364004496394      1.03289133590924     -0.06579616981567
  C   5.53652025808449     -0.68751092492444      0.34928962183056
  N   6.53851336696607     -1.23601758688909      0.85428235434937
  O   4.47720980627818     -1.49843295828133      0.06112201350209
  H   -1.22138729351413      2.31472403445195     -1.13990404473897
  H   7.27626740413949     -0.57218834500006      1.07102282073171
