18
Coordinates from ORCA-job 19001optt
  Br  0.65862485544309      1.46994151501754     -0.63926039208702
  C   2.32291267335557      0.56712487395769     -0.93036626100224
  C   3.49603429195226      1.40251427294009     -0.59597370988348
  S   3.34529204129739      2.92725185724848      0.23090032285553
  C   5.03261278377458      3.05812939831943      0.19637414310270
  C   5.59338527592980      1.97575491871160     -0.43166846091467
  N   4.71229866631287      1.04709695185551     -0.87434104163248
  N   6.14264746281049     -1.21711213671265      0.69415372237705
  N   6.03430248903945     -2.13519096959632      0.12477021758797
  S   2.40997078407861     -0.92632164136080     -1.47125382211736
  C   7.05190031123762      1.84899223955252     -0.60943172120273
  O   7.59858863432616      0.93194061442319     -1.15688866520582
  C   7.90369375609884      2.97698918682330     -0.06064066349864
  N   7.52553548609792      4.03151451968351      0.52171644623200
  S   5.94445505077562      4.41638138879428      0.84527846410721
  O   5.80534496141366      4.41181566905095      2.25977205484724
  O   5.62760015322305      5.56496982266441      0.06900852217450
  H   8.97180032283279      2.82420751862719     -0.21414915573975
