20
Coordinates from ORCA-job 19002optt
  Br  1.14652435505071      0.77773028041039      0.05396157887152
  C   2.98074924138023      0.36649355789799      0.05423703968114
  C   3.90242215297094      1.36352833142559      0.05542052729100
  S   3.43782509618803      3.06438230285732      0.05664319852227
  C   5.12458660833966      3.48550304614152      0.05760215130647
  C   6.00856408158817      2.43924065818349      0.05707268750017
  N   7.32494502821317      2.84441834993636      0.05790756825853
  C   7.19465400531660      4.13344654833197      0.05899723362645
  O   8.04922555669695      5.16651988410518      0.06027786252873
  C   7.27346136530141      6.30190214491295      0.06084615235235
  C   5.96617723368333      6.00258667278354      0.06015435657963
  N   5.90666562786695      4.61079049895831      0.05890583600534
  C   5.34074431125697      1.16085596162274      0.05574875641090
  C   5.89848987593687     -0.06733578068554      0.05480786353872
  S   5.01481847840074     -1.52583600798435      0.05322585399608
  C   3.28722974747961     -1.05633988065755      0.05308898865638
  O   2.47548631035872     -1.94589671783881      0.05190700196989
  H   7.79617339078278      7.23998609978612      0.06175327270476
  H   5.10188400574471      6.64046431126877      0.06034904367402
  H   6.97537352744341     -0.18344026145600      0.05509302652568
