21
Coordinates from ORCA-job 19005optt
  Br  2.99814954225254     -1.93575803057518     -1.75458143710057
  C   3.59718610260728     -0.55970079347909     -0.62786606673257
  C   3.03057468286366      0.67364129184077     -0.62530719674457
  S   1.62464860972669      1.08176552208843     -1.60041835790516
  C   0.59130924058232      1.73973660090241     -0.36719079742366
  C   -0.48930824342269      1.17764813144906      0.26270952531371
  N   -1.11218413797676      2.09656429021961      1.05101698668382
  C   -0.42527916914517      3.20308073487759      0.90722529638184
  N   0.62353216217945      3.05678608085754      0.06058464149489
  C   1.52673186809614      4.04730455583790     -0.37200118529028
  C   2.85054264317190      3.89311310373333     -0.33773887940371
  N   3.61378836810672      2.93972454644937      0.29494070830283
  C   3.68416128051305      1.67569211681937      0.20984037961622
  N   4.62108518365227      1.08107869942056      1.05962308365273
  N   5.10104347528504     -0.14308053046686      1.01918362226929
  N   4.64164751700115     -0.96116742253288      0.17823457857654
  H   -0.84027248066809      0.16305851710659      0.16817062384077
  H   -0.62462863680521      4.14250773729359      1.39889766246506
  H   1.08917124922909      4.94650682457258     -0.78024347416852
  H   3.43931675163722      4.71130682314749     -0.73942309290482
  H   5.09078399111336      1.69519120043781      1.71234337907615
