18
Coordinates from ORCA-job 19011optt
  Br  1.52424788374438      1.51163356770144     -0.07756286509799
  C   3.28683186429770      0.87905787162986     -0.05187939179734
  C   4.33131581669829      1.73626604443961     -0.04907318371758
  S   4.16586432504288      3.48425040649533     -0.07484720552950
  C   5.90107893671196      3.65205529682326     -0.05073645823661
  C   6.55338759807350      2.45751610925703     -0.02338484554615
  O   7.92420114068516      2.59180723965091     -0.00170684155925
  C   8.07277096605667      3.91222856291913     -0.01689025347956
  C   6.92563063649900      4.65263614513306     -0.04745219141259
  C   7.45437909505774      5.97411360088313     -0.05814810380338
  N   8.75792577975896      5.96591656394246     -0.03500649991917
  O   9.17325820408461      4.62021191734518     -0.00727467170739
  C   5.72914423580620      1.28483500223111     -0.02142916568593
  N   6.13883183387735      0.06613086451499      0.00163993648267
  S   5.10434015994558     -1.19775867196967     -0.00134906540425
  C   3.43959429192240     -0.58058961579963     -0.03690195014397
  O   2.53551977987422     -1.37500113842106     -0.04630311643951
  H   6.95667745186336      6.93069023322384     -0.08269412700251
