21
Coordinates from ORCA-job 19017optt
  Br  1.44243446972360      1.23321030973274     -0.00896319605520
  C   3.24662896209445      0.75299339562097      0.01098306707653
  C   4.24244575647273      1.64639445562348      0.01592483899215
  S   4.13048561136409      3.39881532835246      0.00410019478765
  C   5.87171971458226      3.47702275871904      0.02365233866648
  C   6.50624525011911      2.26025569944385      0.03914169956586
  S   8.23765933363599      2.35825645512710      0.06131047929346
  C   8.13156221726479      4.08422672137266      0.04969827024555
  C   6.81717108142627      4.53305287204944      0.02898844090465
  N   6.87532139564019      5.88363208514917      0.02131474415805
  N   8.13964809037983      6.32491344490838      0.03629488000576
  C   8.91662262231811      5.25722072142781      0.05354004502797
  C   5.60435662697944      1.13985705629567      0.03534626617042
  C   5.83274504283865     -0.19129760191184      0.04714016136268
  C   4.72964897947212     -1.13022724295320      0.03898388179716
  N   4.73140401252963     -2.39038712915734      0.04595870006633
  O   3.44893699113256     -0.56026057188203      0.02064060322480
  H   6.12331304434758      6.55033091827622      0.00798636031812
  H   9.98719540050685      5.37173777468897      0.06819363982251
  H   6.83336504934022     -0.60001860259707      0.06339019411863
  H   5.68209034783149     -2.74572884828653      0.05937439045042
