20
Coordinates from ORCA-job 19016optt
  Br  0.44243415073888     -0.41533638564122      0.30727733240659
  C   2.14071706959920      0.34712200528659      0.40309158192660
  C   3.03695568466537      0.41430872612414     -0.61878716464730
  S   2.56369311858530      0.54037242594222     -2.32255428230170
  C   1.26452301197223      1.68145212581861     -1.94686295944865
  C   -0.05274286972968      1.64749951968472     -2.25251341166510
  O   -0.70817266674394      2.44431199942381     -1.37349511522395
  C   0.25921022987023      2.91265467442405     -0.54165395881131
  S   -0.18735832383017      3.61884784471658      0.99031560849751
  C   0.37773919439060      2.26372818017927      2.15428968841891
  N   -0.43773724610518      1.81941658592432      2.99876865735261
  N   1.72833748036425      2.02338292184597      2.18936334792880
  C   2.45492568912114      1.24848340356476      1.49668494801442
  N   3.83271815671948      1.30284024859413      1.68115746563307
  N   4.75385650994679      1.01882150599165      0.76584666369106
  N   4.37276582153147      0.66747629388699     -0.37735690819002
  N   1.44275017106437      2.56675658667723     -0.89934962925241
  H   -0.64155891049392      1.12669608616331     -2.98616732587089
  H   -1.38067281714736      2.16434025412972      2.84332685488555
  H   4.18461654548094      1.79182499726314      2.49361860665620
