23
Coordinates from ORCA-job 19028optt
  Br  1.08062045485839     -1.40471630684506      2.31972363643147
  C   2.25768319535281     -0.72905673766051      1.02364159527864
  C   3.27873261575167     -1.49917193320616      0.44136001773129
  S   2.93543829249845     -3.23391768152226      0.04847027620903
  C   1.44606940034116     -2.68875128062991     -0.76410537452519
  N   0.23753612503837     -3.01392240631276     -0.33964842216792
  N   -0.50361704730349     -1.98750573079868     -0.76861892759081
  C   0.27425096200880     -1.06952727365114     -1.38217227984955
  N   -0.15895530995605      0.23140775998937     -1.64644086652455
  C   0.02699305959242      1.31632530623126     -0.75596979575596
  N   -0.46382453405199      2.46838830116381     -0.95471921429320
  N   0.70269985779456      1.07006476356281      0.44529598544164
  C   2.01999648599438      0.50837697431128      0.43212826751789
  C   3.04626707162424      1.08327233619688     -0.30638617195920
  C   4.21587680292503      0.35979782037280     -0.48676890327482
  N   4.27374652005480     -0.93906148443199     -0.21342159399664
  N   1.48916620626111     -1.53540049544188     -1.48725821607062
  H   -1.48084700627855     -1.91952496642949     -0.53147383591499
  H   -0.20625467775673      0.50538791361734     -2.61562088637522
  H   -1.08467182342393      2.48738259405357     -1.75902925100126
  H   0.57461758027704      1.86601831289424      1.05747747833588
  H   2.90714347790807      2.05656596485953     -0.75966067563177
  H   5.08133229048940      0.79456824967696     -0.97080284201415
