21
Coordinates from ORCA-job 19029optt
  Br  1.15470443882476      0.27141952765501     -0.05229948290290
  C   3.00804365604428      0.02723953598080     -0.05356254735100
  C   3.57634405131417     -1.19231894402573     -0.05416055868265
  S   2.85545512577288     -2.77683135332504     -0.05414127238317
  C   4.46366981835032     -3.48441780248296     -0.05474808227577
  N   4.61453950667390     -4.74261227729892     -0.05487117307589
  N   5.90281740130247     -5.20053863170037     -0.05531166987629
  C   7.03039313868057     -4.45243678540986     -0.05543048479136
  O   8.14421099386627     -4.91903021553521     -0.05559135712770
  C   6.83083601928117     -2.94565235320560     -0.05524216133888
  N   7.79922633447447     -2.15161263854659     -0.05526579072029
  N   5.48132121884991     -2.52972437905306     -0.05502796919232
  C   5.01830429238228     -1.20653590971975     -0.05480225914335
  N   5.78007200035933     -0.18132550936643     -0.05505165271132
  C   5.19749345828834      1.08145190688569     -0.05467088668053
  N   5.81255180155758      2.18693875665038     -0.05506484231108
  N   3.78657618419602      1.13003702728554     -0.05381323474209
  H   5.99739265588531     -6.20495400602806     -0.05536193523728
  H   8.65506680154163     -2.71209389097188     -0.05543351610938
  H   6.81388812108658      2.01636873451995     -0.05568688169484
  H   3.37909298126774      2.05362920769211     -0.05346224165188
