23
Coordinates from ORCA-job 19022optt
  Br  1.96612895328236     -0.73319065183929     -1.32895444086023
  C   3.38923801508966     -0.46936323197661     -0.14948722246101
  C   4.07175311975912     -1.45598114067336      0.45356480692246
  S   4.26592739341518     -3.20019285005543     -0.00593270379632
  C   6.06775105180775     -3.01534625488035      0.16114913948034
  N   7.07261746251419     -3.33970389039678     -0.55992205981542
  C   8.14627849630843     -2.33123782565811     -0.25793143246464
  C   7.44773092194110     -1.28925256565563      0.62001134685395
  C   6.30156609350702     -1.91352934910777      1.04529015501384
  C   5.26578636043152     -1.00531860852370      1.12527675957893
  C   5.82308684111376      0.22362488947306      0.89590674584467
  N   7.17645747544406      0.05023297757471      0.58483733975730
  C   7.84236143558110      1.16268869908433     -0.09002057349768
  C   6.95885562414013      2.42081280830947      0.02269572281510
  N   5.55983859596842      2.22772744289659     -0.37440820552931
  C   5.07378353529079      1.20110232936831      0.17171671974644
  O   3.73513412167113      0.84684820760060     -0.01142326883470
  H   8.46096857814485     -1.90905073973801     -1.21309759465219
  H   9.01134102631362     -2.80602837689673      0.20662024499387
  H   7.98998920670472      0.88472694111659     -1.13727910823952
  H   8.81450726894291      1.36142717693139      0.36026940765882
  H   7.39443745230299      3.19641287525295     -0.60358855309020
  H   6.99346097032515      2.77159113779379      1.05970677457553
