20
Coordinates from ORCA-job 19036optt
  Br  10.76205556797514     -0.60757783025302      1.76205571402834
  C   9.58008835470973     -0.17539132800351      0.39014842112732
  C   9.60800635616563     -0.73148252275710     -0.84389105945003
  S   10.81596078711445     -1.84033468799363     -1.43267510191168
  C   10.05027001593174     -1.91122673072866     -2.99665122682991
  C   8.90461840992900     -1.21174809876078     -3.08781285341386
  N   8.24413574680127     -1.02705591001915     -4.29875737103360
  C   7.03175517765393     -0.67408497738007     -4.41108693046936
  N   5.99348104851428     -0.56822059430445     -3.47054332366617
  C   6.12938059021051     -0.28122916010336     -2.24515101663083
  C   7.35264400475099     -0.04783172646036     -1.47246217033531
  N   7.18771184396944      0.51285868000773     -0.23254142180793
  S   8.45933269466893      1.13167140978359      0.64569225215838
  O   8.92752767603823      2.29496374245803     -0.02646790930587
  O   8.00856671175719      1.21559356592341      1.99406715140551
  C   8.56663268647274     -0.55196912627487     -1.83116338634534
  H   10.52116156574189     -2.45031380306241     -3.80302254534251
  H   6.66768511101673     -0.49460178298225     -5.41839154192287
  H   5.21094598966659     -0.23286317036718     -1.65376016860260
  H   6.27603966091144      0.58684405127805      0.19941448834833
