23
Coordinates from ORCA-job 19038optt
  Br  6.44925398671202     -1.28317126135404     -1.04117831472906
  C   4.67183093136116     -1.73627524642388     -0.60176790243820
  C   4.28267132973506     -3.01711278035275     -0.54561184372116
  S   2.55062451912414     -3.31615341684670     -0.29035730107169
  C   2.07559752168099     -2.09365809111438     -1.48237962442721
  C   2.46282240228007     -0.74855662989647     -1.03703513024910
  C   3.71560399638328     -0.59669409789004     -0.54642440802441
  C   4.16826017616410      0.67984753831162     -0.09532494669676
  C   4.53654035647817      1.74734418792647      0.30621520068587
  C   1.74453194378244     -2.44849408246709     -2.73380385711819
  N   2.23854968648797     -3.68768588270942     -3.23183282423048
  C   1.73516000276699     -4.94613617812283     -3.15091322822460
  N   2.40335908975712     -5.97518834605937     -2.72913631703957
  C   3.52096015574434     -5.73680978075738     -1.95121312572529
  N   4.36817732296095     -4.79225805940220     -2.10157698383016
  C   5.08037778939045     -4.23007512030541     -1.03108019203204
  O   6.15289865457313     -4.55190229130421     -0.61802955134561
  H   1.81473611553788      0.11224397547383     -1.14942581830819
  H   4.87269148063567      2.69212030488243      0.66181861035086
  H   1.36678249662532     -1.72787926486306     -3.45150086293831
  H   3.24298179324835     -3.74227156448162     -3.02054659037046
  H   0.70199192897834     -5.09107442657314     -3.45847712118348
  H   3.56759631959199     -6.40115948567031     -1.08441786733272
