23
Coordinates from ORCA-job 19044optt
  Br  2.69556961804856     -0.76724354475917     -0.19780926884586
  C   4.05410726556969      0.26716222980782     -0.98600448373483
  C   3.83954867196171      1.56616687170509     -1.34128602294585
  S   4.95613354091264      2.58252130434661     -2.20549614998341
  C   6.36235517607042      1.59760312629954     -2.21784929664609
  C   6.49303152926002      0.51872980160192     -1.44233400785977
  C   5.43519440197210     -0.00323109065231     -0.56823907987515
  N   5.60585108548985     -0.34410687226311      0.67178309166317
  C   6.12155774555921      0.86769021943547      1.28635491890263
  C   5.11401075068391      1.73700535178988      1.43845829966825
  N   5.05984467823564      3.13335414230205      1.54172231153382
  C   4.25024513256652      3.82845766818283      0.65560697563827
  O   4.49027454359341      4.95864578937763      0.32158767052467
  N   3.02437611485489      3.23805362030019      0.24431004609187
  C   2.76278870344796      2.38442247327753     -0.65475363911543
  C   1.39639427514322      2.14794253009465     -1.02904389406464
  C   0.27371143757868      1.98159367983746     -1.40956889524064
  H   7.15668092644671      1.95930529017497     -2.85788022832175
  H   7.43856177128016     -0.00690569164148     -1.39722562961718
  H   7.17683067208626      1.06544240662391      1.44025831769407
  H   4.12505202721095      1.31960082398403      1.31505416348618
  H   5.90666922283702      3.65008442918870      1.73710407421787
  H   -0.72878929080961      1.83570544098575     -1.73674927317021
