24
Coordinates from ORCA-job 19045optt
  Br  3.01980410940608      0.96320165564769      2.55466951646325
  C   3.88683023321328      0.87904382744024      0.86772465757866
  C   4.64813828388563      1.90154297934299      0.41889194853078
  S   5.39777723544895      1.72906042259395     -1.17100533124917
  C   5.85471352097801      0.00082344787851     -0.89680081103094
  C   4.68269792759808     -0.85297812495547     -0.65546062489039
  C   3.74983266793018     -0.40579493324862      0.19646550795714
  N   7.04254864228828     -0.40556017852237     -0.77941711811306
  C   8.04612329070428      0.56619052450917     -0.63098603167222
  C   9.11036149436741      0.61326832801626     -1.66853673031338
  O   9.13363671726500     -0.15556752724525     -2.59054088150169
  C   7.94798002992165      1.42714488719733      0.39379380259744
  C   8.63363045806284      2.71595382612076      0.47998342968699
  N   9.87764889700902      2.89698552427457      0.45493588074896
  S   7.52260091357024      4.15791346535287      0.39557250602718
  C   5.98653652623104      3.92733243370288      1.25065918515783
  C   4.92245745302540      3.11129500137467      1.18694602740227
  H   4.66139245681284     -1.85431826349947     -1.06507763579422
  H   2.92227880248416     -1.03918762214379      0.48623509708631
  H   9.86973034015220      1.39548441809771     -1.53123538640926
  H   7.12813504729592      1.29425095537153      1.09179504779388
  H   10.13420607200992      3.88431190518677      0.47906257577168
  H   5.88702362459754      4.73508217298225      1.96708644890750
  H   4.13891525574194      3.35952087452480      1.89523891926446
