23
Coordinates from ORCA-job 19047optt
  Br  5.92712323935786      0.99044199808126     -2.15863251030807
  C   4.42871529383885     -0.15837904067238     -2.01654149763997
  C   3.72963724192851     -0.38720557047224     -3.30792463938481
  S   2.44529822933337      0.53465339330305     -3.68795491802479
  C   2.42530754949169     -2.28556767102484     -1.60496882983412
  C   2.95664805090565     -1.60269695009999     -0.61907943357080
  C   4.02438861088729     -0.62888411450964     -0.83732749562517
  N   2.04264985258572     -2.89759705965685     -2.58442475818406
  C   2.99683411549440     -3.88770348263136     -3.08520495136675
  O   3.93904171778845     -4.26521412793191     -2.45362663719076
  N   2.64125983177743     -4.36989094409681     -4.31075366173006
  C   2.66643997624689     -3.87652803322439     -5.47078709337937
  C   3.04505359130535     -2.54947882935919     -5.98393700672571
  C   3.61659386893701     -1.48848937736448     -5.42425483938653
  N   4.19144688741685     -1.39652125837530     -4.12908576827128
  C   5.33536700845988     -2.18762637294508     -3.83659170633619
  O   5.79421829417458     -2.95516104383150     -4.62313022026849
  H   2.68278579552639     -1.86932542435194      0.39188834452410
  H   4.56007472956193     -0.31672976117648      0.04997351605724
  H   2.28658299791814     -4.53401939248533     -6.25255344290382
  H   2.74409779266539     -2.40552033696565     -7.01472399042954
  H   3.68178458771107     -0.56471793028687     -5.98677646429325
  H   5.72365073668727     -2.01183866992205     -2.82858199572774
