24
Coordinates from ORCA-job 19049optt
  Br  2.30022526090203      0.68336069337126     -0.43219574301245
  C   2.89663891211120     -1.06427759368762     -0.08353294600673
  C   3.24327288767874     -1.52111745195402      1.16203501031976
  S   4.44810107455421     -0.46470862914724      1.94240072926714
  C   5.56879514763723     -0.91829250507860      0.63475808772982
  C   5.25734965759945     -1.51314724407242     -0.53016596591305
  C   3.85131547998198     -1.57482743009445     -1.12830073027157
  O   3.65733428748760     -1.80114646944989     -2.28437971815914
  C   6.24777215451614     -2.31908896196779     -1.30915089429233
  N   7.08355659285237     -1.90666644011099     -2.16631368883240
  N   6.08091894600789     -3.68366629803402     -1.08415549287241
  C   5.93790067996203     -4.23228392338074      0.25566569879103
  C   4.78322574176643     -5.21264488488673      0.47537902775493
  O   3.46323187049745     -4.80582691836434      0.07509220933754
  C   2.96757234735336     -3.64984833751834      0.44307603110818
  N   3.55643132445313     -2.84936429796449      1.25664271416263
  H   6.60965720369033     -0.83516243339151      0.93139982930591
  H   6.98653399443065     -0.90538824157610     -2.30975193116272
  H   6.65552657405946     -4.22354794870183     -1.71722824728455
  H   5.85431117516499     -3.42260711690248      0.97126562917383
  H   6.83541981814408     -4.79991014376087      0.52498969922351
  H   4.93756007681194     -6.12516498198699     -0.09644624631195
  H   4.75570966366968     -5.46014008374039      1.53901070636805
  H   2.00263912866757     -3.44953235759937     -0.02409376842305
