22
Coordinates from ORCA-job 19054optt
  Br  1.12711655519477     -0.35453836795303     -0.62401389209110
  C   2.95519178733313     -0.19601848951496     -0.28050472947440
  C   3.56515878531504      1.00268322372532     -0.23811021613586
  S   2.85753126421372      2.57208646387055     -0.48843073063253
  C   4.42292520646334      3.34868518921276     -0.19695698770958
  C   5.42006158425090      2.48633011464438      0.06332765442021
  C   4.98381390775644      1.11143496674518      0.03671629763077
  C   5.66602837114581     -0.02544217524765      0.24837742487712
  O   5.07620640513696     -1.22809309918198      0.20659574776864
  C   3.72140473912630     -1.41676766461119     -0.05297002371937
  N   3.23545448782787     -2.57669789083945     -0.07937488161749
  C   4.51357369740589      4.79095347051578     -0.26912498745484
  C   5.48937733011376      5.58250106258722     -0.73099455105245
  O   5.13588922718619      6.89483908617403     -0.58659909138871
  C   3.88418429637830      6.95757264295989     -0.01978782085726
  O   3.30882331538417      7.96776847576180      0.24617308229794
  N   3.49978509049463      5.65200084186329      0.15318673837993
  H   6.42728497179452      2.79615425546298      0.30244705708970
  H   6.72219194375710     -0.08987058227778      0.46814553435589
  H   3.94370283741810     -3.28214505490079      0.10802973820334
  H   6.43180279937235      5.36510681285986     -1.19901665773976
  H   2.65149139693069      5.39845671814375      0.63088529484980
