24
Coordinates from ORCA-job 19055optt
  Br  0.90621183355769      0.13546318009709      0.08354352957762
  C   2.76984181385104      0.01193236293444     -0.09225837604425
  C   3.54383736841443      1.12659639031395     -0.00707154750128
  S   2.87570287402920      2.70690066366896      0.26981843205965
  C   4.46151337524301      3.41349696452538      0.24209876228198
  C   5.46057862472553      2.54568507207137      0.03386223626080
  C   4.99295430164567      1.18085591693279     -0.12312872403527
  C   5.74053611613782      0.05699458468812     -0.34136375426355
  S   5.03814500700886     -1.51073971724976     -0.48719389180356
  C   3.27240468390341     -1.33382045430879     -0.30394587470638
  O   2.61323131352237     -2.33860068655944     -0.36860151609846
  C   7.24156297064210      0.09230767679065     -0.46751024703161
  O   7.83884037742518      1.14058161626073     -0.46991612611133
  C   7.97933751151544     -1.22380506321880     -0.58978751532451
  C   9.48944390337567     -1.01705385244838     -0.66566594422814
  C   10.19247278224680     -2.29126750305425     -0.77757296558300
  C   10.74482614755258     -3.34971289514631     -0.86932998736103
  H   4.55796831843798      4.47844016649982      0.38798169514392
  H   6.49889388531708      2.82010345281091     -0.01445067045817
  H   7.62201981119909     -1.75285123395099     -1.47802281754279
  H   7.72104866465885     -1.86170903814752      0.25987419804888
  H   9.83169045075337     -0.48147002717331      0.22120410558818
  H   9.73277964386095     -0.38241733073301     -1.51889832191744
  H   11.24115822097582     -4.28691024560365     -0.95166467895024
