22
Coordinates from ORCA-job 19052optt
  Br  1.05663569351903     -0.04323660386780      0.13088111262133
  C   2.93810573913144      0.03398352336433      0.09082408906128
  C   3.67636235463685     -1.09269967205751      0.05503428931878
  S   3.00471702540994     -2.70808301779521      0.03252271775621
  C   4.58968346831834     -3.37402358132908      0.02361182999594
  C   5.60655765706516     -2.48405177029081      0.03119505875295
  C   5.12660465548866     -1.10331756283135      0.03617626057681
  C   5.89422985312982      0.01954341357651      0.04825428505769
  C   5.39700463783445      1.37127085748996      0.08090434134415
  O   6.05688607376068      2.37835713942654      0.09117439745711
  S   3.59706325090664      1.61274492244248      0.10895068493289
  C   7.01537286127927     -2.91731651299320      0.02872068628662
  N   7.92331327189875     -2.13107610836130     -0.55152456466296
  C   9.17672773468831     -2.56941191196494     -0.57647184037064
  N   9.63058505610825     -3.71607574244545     -0.08961777486525
  C   8.72368314008146     -4.48945999757224      0.50341064824244
  C   7.39317477558987     -4.13220321664861      0.60173350871114
  H   4.69430120760216     -4.44850398794907     -0.01311636264173
  H   6.97072545475631     -0.06269572831798      0.01209857665146
  H   9.90344105920300     -1.91686246100720     -1.04762363539409
  H   9.08144067513594     -5.42503981264435      0.91963610497278
  H   6.68338435445561     -4.76084216822369      1.12022558619507
