25
Coordinates from ORCA-job 19059optt
  Br  0.94793458996279     -0.08966623651195     -0.33115363492660
  C   2.80194540197452      0.00393127211491     -0.16986800902850
  C   3.45717559513344      1.18013665283629     -0.12543957300553
  S   2.82044313873447      2.79213632340854     -0.19180041772282
  C   4.44083771800620      3.45427322466518     -0.08370364646029
  C   5.42061341726295      2.54683102705410      0.00114733372918
  C   4.90295845121340      1.19554589037407     -0.01823120779990
  N   5.60876010940535      0.11676003680518      0.05090943812884
  N   4.93091984012403     -1.03378847215549      0.02074294397215
  C   3.55912484628174     -1.24054242255929     -0.11012444097210
  N   2.99086455905687     -2.38310094666752     -0.17817898164027
  C   3.78217094884201     -3.58157460871415     -0.14046479267940
  C   4.15474981143838     -4.02903720617807      1.28626297413219
  O   4.30719419494421     -5.44522984069923      1.21935949600880
  C   3.63335931456862     -5.94867119075021      0.15164857353518
  O   3.58588336225039     -7.11570973742846     -0.07419593628982
  C   3.01035044125223     -4.80477305764839     -0.61893035206405
  H   4.55220480298499      4.52764469736682     -0.09176582160907
  H   6.47357195452239      2.77230438577712      0.07430221366042
  H   5.52807186558364     -1.84270623593539      0.08092993338270
  H   4.70123518730500     -3.50341015031913     -0.74180157584420
  H   3.33988045740644     -3.77790793588812      1.96911842919539
  H   5.08581870219486     -3.61130917137589      1.66733634398574
  H   1.96425636055529     -4.71051961959502     -0.31762715457575
  H   3.04867492899576     -4.99061667797588     -1.68847213511229
