24
Coordinates from ORCA-job 19067optt
  Br  1.00860082472141     -0.01044506967873     -0.12982119628041
  C   2.87368862188664     -0.04005132822983     -0.08692463738236
  C   3.55332185654736     -1.21026569386537     -0.08443791534484
  S   2.85497270424259     -2.80436444675979     -0.10803171571687
  C   4.44177643037435     -3.51498823352785     -0.08400172142887
  C   5.46905304762103     -2.64509991541323     -0.06665126056533
  C   6.89443788970938     -3.05024148906855     -0.03116438821065
  C   7.35665642761758     -4.26271081948711     -0.73545976763227
  N   7.71105183836742     -2.93878178683302     -1.24361786956394
  C   4.99844783399733     -1.26953036689031     -0.06689942138742
  C   5.66051726148103     -0.07341928032813     -0.05801316361565
  N   4.95724368199478      1.09050255776067     -0.04685508514365
  C   3.57272298175676      1.24359556491644     -0.05339437839086
  N   2.95284840682762      2.35637784701921     -0.03534564631795
  C   7.12909363988414      0.12340249768639     -0.06919231269670
  O   7.59677753899427      1.23561962269022     -0.03388385889478
  H   4.52958331802540     -4.59096520559702     -0.06523097760179
  H   7.43243483345866     -2.75617286222311      0.86527842911541
  H   6.62428856707189     -4.83802562800689     -1.28740305423363
  H   8.18232714542771     -4.83003486847961     -0.32838318210419
  H   7.11556114296294     -2.70551179427025     -2.03349349779357
  H   5.52981391740419      1.92779432219771     -0.03327277854058
  H   3.58660271368507      3.15111534710730     -0.01084322830788
  H   7.76217737594037     -0.76879897071912     -0.12795737196120
