20
Coordinates from ORCA-job 19060optt
  Br  1.05190548415502     -0.20926071377159     -0.41801632891952
  C   2.90327196030406     -0.15708606042357     -0.21252160737348
  C   3.59324531756165      0.99553272946014     -0.07726139191215
  S   3.00768195489962      2.62381162761101     -0.04885212377411
  C   4.64181075499728      3.22691586448324      0.15759318022482
  C   5.58969267651547      2.28378243058766      0.20503773205373
  C   5.03032896767607      0.95538762273445      0.07111986545335
  N   5.70979427475318     -0.14401634315772      0.08614801843369
  N   5.01016402242349     -1.27627986756828     -0.04718185046702
  C   5.78313003595161     -2.45317690574893     -0.05783317772714
  N   6.61077169747256     -2.83096097612073     -0.95697469197679
  C   7.10396157095281     -4.02882217443237     -0.46427136471774
  C   6.51736903688362     -4.28784752188360      0.72165057900913
  O   5.66617829845760     -3.26550215076554      0.99735565136101
  C   3.61648992913183     -1.42690307448815     -0.22012431452209
  O   3.12875302373986     -2.52239473512161     -0.35963087095782
  H   4.78339527524434      4.29377379306196      0.23431661207270
  H   6.64637385512034      2.46473869188929      0.32831048129454
  H   7.83295442792606     -4.60822503432493     -1.00293768556216
  H   6.57872743583346     -5.08146720202071      1.44307328800704
