24
Coordinates from ORCA-job 19069optt
  Br  1.14642771980395      0.08090139597408      0.30582334472554
  C   3.00128724413818      0.09501176415209      0.08120073449542
  C   3.69202612110884     -1.05437974348033      0.19307736137731
  S   3.11183292388792     -2.66049564256672      0.53507094965398
  C   4.74420718576045     -3.27806040022707      0.44829721369528
  C   5.64610932433222     -2.33455111303151      0.17823911741078
  C   7.12674975443398     -2.49761603173327      0.07541785017273
  C   7.92174634628742     -1.81566661707353      1.21392543049361
  N   8.94898078989475     -2.80953978411929      1.41383104358598
  C   8.56401917915912     -4.04133208667145      0.95724159329013
  O   9.07482579906048     -5.09911786809761      1.14606570181679
  O   7.44172423144234     -3.87551733471132      0.19010607770029
  N   5.07185100821424     -1.06650181235400      0.02014163747293
  C   5.68935931256979      0.11585521348119     -0.30585251752929
  N   5.09514135286238      1.23323161019054     -0.42230148540143
  C   3.69930590475820      1.34687431815144     -0.21114600267061
  N   3.08730695795450      2.45697235574140     -0.27606625350469
  H   4.95786897718099     -4.32165735473424      0.60525234959508
  H   7.48522770110280     -2.14327064882465     -0.89743254435026
  H   7.29506186113334     -1.67116810254719      2.09855834916272
  H   8.33772459253215     -0.85735165525072      0.90737816988977
  H   9.60683914662408     -2.77609961490772      2.17452792537781
  H   6.75944952343821      0.05109299404201     -0.47647037396866
  H   3.75292704231958      3.19538615859787     -0.49588567249122
