22
Coordinates from ORCA-job 19064optt
  Br  1.03031685507812      0.10754426701609      0.00509245441118
  C   2.89774791595788      0.07363954171244     -0.09709463575871
  C   3.59621847925518     -1.09540139094993     -0.05474509775404
  S   2.96054169813910     -2.70246155814750      0.09367254287312
  C   4.57425786512336     -3.37644686837953      0.07574707898385
  C   5.56065367490702     -2.47053134557460     -0.03536354767701
  C   7.01471098562272     -2.74739801312963     -0.07122618334128
  C   7.83250153898687     -2.53127364338924      1.17559111539048
  C   7.59056411948888     -3.91797058677438      0.66099798579945
  C   5.02761196513857     -1.12517139402585     -0.11344328004811
  C   5.68584200894814      0.05981118241759     -0.21028902237826
  N   4.97986760539125      1.21064968517509     -0.25845612985239
  C   3.58289394009245      1.34359861802831     -0.21352720254268
  O   3.08253444629715      2.44899548457629     -0.26902615754349
  H   4.69104514713394     -4.44736465957204      0.14279175347545
  H   7.50201683893635     -2.47811332702680     -1.00183573955836
  H   7.29518509855903     -2.23086210269387      2.06464424455398
  H   8.82209389401283     -2.11047925605211      1.06945239958716
  H   6.91043212606780     -4.54205425568130      1.22312524295121
  H   8.41484531578454     -4.44290197841579      0.20121618754692
  H   6.76403477017140      0.13794555026015     -0.24581974930159
  H   5.45908371090739      2.09724605062664     -0.33350425981689
