22
Coordinates from ORCA-job 19061optt
  Br  1.17323193128273     -1.00675088170629      0.31569208811629
  C   2.97067840891645     -0.50548112327978      0.14093226434020
  C   3.34007847446562      0.78657511319815      0.03088347514297
  S   2.37417560537612      2.22991282853675      0.03186296122425
  C   3.84029459466880      3.23528007294289     -0.17394275631854
  C   5.02049329522516      2.41988618858263     -0.22895557943860
  C   4.73986304226964      1.10453595072184     -0.11728875533633
  O   5.66135522129895      0.12142242687015     -0.14290194450653
  C   5.26436804906851     -1.16261906088114     -0.01770527875671
  C   3.98247408300822     -1.52560562594329      0.12092985003978
  N   3.88276747876492      4.51729011599827     -0.26965669485300
  C   2.74429512896736      5.27554570806003     -0.22131713700284
  N   1.53618795217506      4.85433314287304     -0.04756828584653
  S   0.47663113603361      6.16143128148018     -0.06485253961743
  C   1.74937234614500      7.37332339053413     -0.33103783570280
  N   1.71254309976134      8.63075810748198     -0.46267424107304
  N   2.91010687000011      6.62940498200912     -0.37496620747715
  H   5.99926096873126      2.85460210664066     -0.35102752979784
  H   6.10095469256739     -1.84339094422809     -0.04409098807500
  H   3.72246151100158     -2.56813345774541      0.21631769860487
  H   0.76931813626536      8.99871232643441     -0.40443734936311
  H   3.81108797400676      7.05496735141974     -0.52619521430290
