24
Coordinates from ORCA-job 19068optt
  Br  1.37978604974449     -0.52350841820087     -0.88866332775228
  C   3.19210726018258     -0.33023331112191     -0.42918967824498
  C   3.73610605697933      0.90171917130395     -0.30550702829470
  S   2.99863578879736      2.45678026883236     -0.51588448514746
  C   4.55388267269259      3.17812949915905     -0.14594023852814
  C   4.74287351638306      4.65854422960042     -0.08795365296456
  C   4.36092671568780      5.33410887330124     -1.35908477229421
  C   4.07886091447500      4.93619525977536     -2.61782749356117
  N   3.80029240232166      6.05264781272971     -3.39312280603392
  C   3.92633700669364      7.03949555590590     -2.58521920307491
  O   4.26480340922281      6.69110663587842     -1.32820838462635
  N   5.49719788394871      2.35388187477926      0.09765625260225
  N   5.06534932727881      1.06904142784297      0.01697213439331
  C   5.97758407681559      0.00039988761445      0.24623872802516
  N   7.20370896550776      0.15933628261654      0.53411643544963
  C   5.34343485094316     -1.29770002500211      0.10964931333807
  C   4.03973787749079     -1.45415686316927     -0.20774459868299
  H   5.79059525423242      4.84574516178568      0.15411618735900
  H   4.14006669557947      5.06848747798582      0.72784739433164
  H   4.05115445948235      3.93866766984628     -3.02121497155111
  H   3.79485893838712      8.09064864018836     -2.78098597768632
  H   7.45383598261684      1.14358999669132      0.58178127817733
  H   5.98989847993338     -2.14634723008214      0.27777094900800
  H   3.61596541460313     -2.44557987826091     -0.30160205424125
