26
Coordinates from ORCA-job 19073optt
  Br  2.73529806840772     -3.31234154538292     -0.70495385340058
  C   2.75910434514947     -0.57399072629053     -0.04358031006311
  C   3.28060027212485      0.57129216376646      0.48042127972011
  S   2.17598723086656      1.78624659699038      1.06082047932799
  C   3.18186528758446      2.92862151021402      1.87758335095592
  C   4.52715838496726      2.84064429846403      1.93414822641468
  C   5.26618009974192      1.80099799202004      1.29675949909491
  C   4.69411399615410      0.78873129467830      0.60798786388124
  S   5.75905013493540     -0.30420459080510     -0.29800975559616
  O   5.88310676581776      0.23712675779647     -1.61587083618418
  O   6.93062777008763     -0.53781386989980      0.48216435754747
  N   4.90547764266028     -1.69583672467538     -0.39912809411560
  C   3.63290036787933     -1.66064250705281     -0.36731444831357
  C   2.40616419676903      4.00546916616539      2.57111046347843
  C   3.05746744576554      5.36734176204094      2.85931945565471
  C   1.70249587906760      5.95170654119783      2.41746314405727
  N   1.30494273552131      4.65014315554283      1.80124415344654
  H   1.97358458293380      3.57565108948995      3.48106227802120
  H   3.84593243575417      5.59388194453752      2.14108880854292
  H   3.40458006251226      5.56210505064135      3.87199329688384
  H   1.71911909394325      6.79824725606233      1.73473568772574
  H   1.04402974679776      6.17975467144989      3.25539474686185
  H   1.55223782131350      4.66314421848199      0.81490492304844
  H   5.06813717891666      3.60780722688303      2.47310539974652
  H   6.34870884876615      1.82308472994295      1.35257007887142
  H   1.69312960556219     -0.72916746225921     -0.10602019560801
