26
Coordinates from ORCA-job 19077optt
  Br  1.13435146552528     -0.48775028292069      0.10751421626090
  C   2.98050025610493     -0.16695656827283      0.06503326870491
  C   3.50024505122193      1.07417702027902     -0.04135632654096
  S   2.66941548641952      2.59832421967978     -0.16015522832080
  C   4.21808191348722      3.41666080851268     -0.23135732170869
  C   4.23475475535782      4.83123512967817     -0.32274648264663
  C   4.23499883652972      6.02827972308450     -0.39859662066384
  C   5.30653799038358      2.60978118244333     -0.17857036611308
  C   6.72137004254754      3.08973658757350     -0.17730300935395
  C   7.28489801624355      3.16169061211038      1.23941657341982
  C   8.71400360511766      3.62572689150290      1.28055754992267
  O   9.36577433252026      3.88379110967810      0.30709510465991
  C   4.93343913935291      1.21318723563695     -0.06292149897780
  C   5.74534480824986      0.12378725361349      0.01991283809971
  C   5.19649123117584     -1.21064083668721      0.13311319407780
  N   5.78981771117680     -2.34027656986124      0.21988125974713
  N   3.79087615040206     -1.24578605863376      0.14935952602423
  H   4.23739626572279      7.09006953663042     -0.46982422502223
  H   6.77983125969099      4.07709034335560     -0.63549145626702
  H   7.34388635829270      2.42819350448721     -0.78319128627206
  H   7.23220769614206      2.19158541186240      1.74676210908803
  H   6.69386936883057      3.84531248346796      1.85879522437391
  H   9.15382281818485      3.72465003494436      2.29182615090425
  H   6.82288483671559      0.22069075049204     -0.00198924304419
  H   6.79715384636837     -2.22347613621247      0.19820586515797
  H   3.39304675823552     -2.17208338644461      0.22503018449003
