22
Coordinates from ORCA-job 19071optt
  Br  1.03102663132570      0.25368974998794      0.09665042550215
  C   2.89916278235653      0.14482127953933      0.08231659562172
  C   3.54849477651690     -1.05396350062488      0.07617475310628
  S   2.82030246459087     -2.62706321583178      0.07661375068581
  C   4.38612244333761     -3.38521613580278      0.06900686197793
  C   5.42939098402289     -2.53164192237632      0.06583455331600
  C   6.82605656975934     -2.95933296464811      0.06255035330726
  N   7.81644754362101     -2.07457805666289      0.06422935221619
  N   8.93269225507589     -2.80415609621854      0.06247048799372
  C   8.69442492893228     -4.13151166980474      0.05959139896900
  C   7.33292437273668     -4.28098407511062      0.05957745302275
  C   4.97888450006515     -1.15122437000353      0.06886462771948
  C   5.68676381735701      0.01373335967886      0.06608277405584
  N   5.02692588580143      1.19049321399142      0.07022725410539
  C   3.63771275467219      1.38613227301508      0.07879950797061
  O   3.18649516233769      2.51411255500549      0.08229998185547
  H   4.43748036711386     -4.46309328642286      0.06786861020968
  H   9.82389168556085     -2.33932419141295      0.06365880503345
  H   9.49529203457011     -4.85079511827575      0.05799835665443
  H   6.78293127826010     -5.20552988835079      0.05778376861734
  H   6.76537010866109      0.04239181750076      0.06064259039025
  H   5.54720665332476      2.05704024282770      0.06775773766927
