27
Coordinates from ORCA-job 19075optt
  Br  3.89224033518870      0.26253850598939      2.71954363087129
  C   5.27293888052054     -0.97895748934446      2.40120311878477
  C   6.56844058608263     -0.66069511893050      2.60733660221706
  S   6.99641602837207      0.74292891090640      1.57662494749785
  C   6.52035402785963     -0.19199307608496      0.10456347102015
  C   7.38282779588595      0.06277845667377     -1.11833504726619
  C   8.25620033593069     -1.15915227587019     -1.53380291036386
  C   9.67310919345516     -1.30856992938152     -0.92004301097784
  C   9.93224326798972     -2.57085930995809     -0.05254311140964
  C   9.26620570045516     -2.34782662914937      1.25787674603151
  N   9.86092488438112     -1.80048500114778      2.27666529103628
  O   8.81572097639426     -1.31764802604399      3.04562791075815
  C   7.69485193882009     -1.59372353386596      2.37781203094975
  N   7.89890963604194     -2.32391375479692      1.32916241549576
  C   5.61829450252288     -1.18702989087655      0.08287842328313
  C   4.98601748125861     -1.88317725263741      1.25495002711131
  N   4.34876489332640     -2.96683129001953      1.26203463931260
  H   8.01529962218565      0.93932211700968     -0.96745755218988
  H   6.71776414283463      0.29585839119092     -1.95259107227243
  H   8.37559544039151     -1.08450670864883     -2.61543549467083
  H   7.68113502183792     -2.06766056107214     -1.35013230425832
  H   9.92079006269903     -0.43335487150160     -0.31385085726573
  H   10.39852446628521     -1.32849639428071     -1.73416359859793
  H   11.00364406007532     -2.69543968387694      0.09729976779407
  H   9.53623863196695     -3.46203229165144     -0.54010177726833
  H   5.43704258510004     -1.67693010957254     -0.86984735713822
  H   4.27450550213810     -3.35314318305870      0.31972507151552
