24
Coordinates from ORCA-job 19078optt
  Br  1.15284408817633      0.47948393365649      0.15768731019205
  C   3.01312353303593      0.23512669464586      0.06610136261259
  C   3.58684176038974     -1.00096235615839      0.12638822377692
  S   2.56049721393071     -2.40107832967723      0.28980190701829
  C   3.70201521338104     -3.71474316003528      0.28474417365510
  C   3.04737840786812     -5.06257587648361      0.17112094508336
  C   2.72499832850551     -5.39291160451871     -1.29872184737471
  C   2.09227677552367     -6.70083997237570     -1.42611503903679
  C   1.57699274495381     -7.77875915029633     -1.50137102278978
  C   5.02174623844854     -3.54611878852425      0.35914162093035
  C   5.70925831207949     -2.25748913499945      0.43102917637567
  O   6.84771942244920     -2.14563460782993      0.77335660374444
  N   4.95184321500889     -1.09414147889984      0.04681796948391
  C   5.70977395316928      0.05677166929427     -0.43838659167185
  O   6.73220227236128     -0.11854546798124     -1.02183223105840
  N   5.14664407351212      1.28956357826378     -0.18328770932908
  C   3.87607393416595      1.36277465112683      0.01958253110668
  H   2.12639093447739     -5.09380284307249      0.75704314968154
  H   3.72019451912620     -5.81849901456983      0.57491768066025
  H   3.64801952502390     -5.37348109236948     -1.88216147462773
  H   2.06697537080259     -4.62744078379342     -1.71618016671587
  H   1.11861178195113     -8.73543494693073     -1.58295118948336
  H   5.67975895091255     -4.40454927018734      0.41037607140411
  H   3.44581943074657      2.34928735171607      0.17389854636234
