26
Coordinates from ORCA-job 19081optt
  Br  2.94573374517163     -4.22601485830043     -2.56211982133466
  C   4.23760317765170     -2.96643093951194     -1.97461000341654
  C   5.50365518569415     -3.01055679549985     -2.52107342898144
  S   6.71149362418256     -1.63384286948673     -2.36439998515245
  C   5.66566937632387     -0.82193168085603     -1.21400987950642
  C   5.19580356208850     -1.71071783737985     -0.30092627331403
  C   6.00320382973588     -2.77017053472545      0.21241927877486
  C   6.62544221126296     -3.78871149431567      0.37937243349673
  C   7.50116066820973     -4.95223418983313      0.15697154405684
  N   8.13460417972929     -4.87317694917250     -1.15951947393864
  C   7.47164973652226     -5.42487678478256     -2.33717489778628
  C   5.92432316730657     -5.40345306480895     -2.36187240781340
  N   5.97205741793424     -4.12872942057384     -3.13469206812344
  C   7.38998643692957     -4.38269164505151     -3.47034259293308
  C   3.83592676519451     -2.15482225846804     -0.78370227440636
  N   2.70255805715051     -1.90644260080863     -0.29834081067133
  H   4.97739706506628     -0.09982368538946     -1.63663207291842
  H   6.93270460147554     -5.88097079989643      0.23297144464759
  H   8.27315905416656     -4.99720992643320      0.92670142605609
  H   8.42663071610916     -3.91885720065371     -1.32548240627087
  H   7.91303225809123     -6.38557142146631     -2.60481455107288
  H   5.48816269527781     -6.20818452320052     -2.95272119107195
  H   5.40416934149369     -5.31575074587435     -1.41009405697813
  H   7.46669462620714     -4.81531540394234     -4.46727726395777
  H   8.05995088902447     -3.52683726187029     -3.39493422062259
  H   1.96422761200005     -2.31967510769821     -0.87069644676139
