24
Coordinates from ORCA-job 19088optt
  Br  0.91171422851413     -0.18836981712551     -0.12324005243094
  C   2.77255079898475     -0.09509595690321      0.05134755214703
  C   3.47350421325403      1.04332666259262     -0.14633566395768
  S   2.85127829097315      2.61635649286285     -0.55273559845805
  C   4.45482439762832      3.25154735328071     -0.49377587161780
  C   5.43023846927431      2.36828922971678     -0.20158097962074
  C   6.89215634564218      2.72373774027389     -0.12484457361083
  C   7.12180084870907      4.15551552729387     -0.29781251306550
  N   7.27977929365201      5.28130873614557     -0.43711676231230
  C   4.90542302919738      1.02912624291712      0.01864967597377
  C   5.53788521224624     -0.13771060716208      0.35219783944895
  N   6.93772450236835     -0.24715424420592      0.53715250677262
  C   7.83258190161510     -0.31569070331514     -0.49599339119067
  O   7.58725948674166     -0.02763185582640     -1.63813947190795
  C   4.79067775300044     -1.37365503686257      0.53887393314335
  N   5.21575932634943     -2.54552038644658      0.82529998546524
  N   3.40753069531496     -1.23458896086435      0.39114615897226
  H   4.60591197593615      4.30346810905773     -0.69225185047154
  H   7.44344560168611      2.19238806873639     -0.90382295162111
  H   7.31135790966758      2.42219741223095      0.83643671206664
  H   7.24748643723438     -0.63376348433640      1.41871199358779
  H   8.83253120612933     -0.63163505140590     -0.15864985755708
  H   6.22741410131798     -2.57766771582786      0.87056187000012
  H   2.88316397456290     -2.09077775482657      0.51192131024441
