22
Coordinates from ORCA-job 19087optt
  Br  5.72592644370082     -2.80027518753161      2.33863968418150
  C   5.59413600677484     -1.40477061185721      1.09463533254172
  C   6.30587162200362     -0.26513147781161      1.14148371884756
  S   5.92183434406192      0.93031024065008     -0.14772236552484
  C   6.04328369659518     -0.36268164703855     -1.37290475239904
  C   7.23033970211121     -0.56793955707043     -1.97347395277415
  C   7.86449160763498     -1.86130933897289     -1.76128992282768
  C   9.08460616960348     -1.74568185078565     -1.21273547239708
  C   9.22720398553612     -2.35344069128826      0.13216792651536
  O   9.14932143686181     -3.46680428398327      0.52907791070665
  O   9.28131897116269     -1.22344536555836      0.94683598002492
  C   8.72288563113766     -1.21951152481819      2.20657242165740
  N   9.06718960138785     -1.92044997207269      3.17694778516170
  S   7.48022764165545      0.06358992097575      2.42006788915653
  C   5.04315779649039     -1.43012109849384     -1.19023912922276
  N   4.44109757765282     -2.08964919358344     -2.06901210098196
  O   4.70807517796807     -1.70127656983069      0.12149325874226
  H   7.89440211382378      0.27953599597153     -2.09194743467114
  H   7.24275152385218     -2.72604652785752     -1.55340253959769
  H   9.64292657856667     -0.82751881560633     -1.34240711878143
  H   9.84175755711165     -2.54031871364339      2.93700572111355
  H   4.71919481430674     -1.77706372979341     -2.99579283947138
