21
Coordinates from ORCA-job 19084optt
  Br  1.10960247439931     -0.23862904895918      0.01930751983690
  C   2.98798924106192     -0.20549412992590      0.03496833236376
  C   3.64275130119589      0.97976153664977      0.03707261153493
  S   2.90428876460851      2.55068433129015      0.03011352191760
  C   4.47420894238716      3.29634781462347      0.03929957107717
  C   4.62474035856642      4.69805513155346      0.03831495190002
  C   4.73874659499916      5.89079861100506      0.03725991334584
  C   5.46831596819464      2.37671613204228      0.04746221434946
  C   6.83067441227396      2.78717087648283      0.05906859848896
  N   7.89672629200553      3.21236060226037      0.06748630470461
  N   5.02787612225331      1.05230538137471      0.04556185977913
  C   5.87186611941321     -0.11441830712304      0.04733898772719
  N   7.13527070930161     -0.12378881533625      0.04652268606524
  C   5.10707630242441     -1.36819974546597      0.05004156258551
  C   3.74795597664682     -1.39658897528296      0.04329244917657
  C   5.84928928246560     -2.58324604202079      0.05604151506286
  C   6.44648785281499     -3.62232540691100      0.06023190450909
  H   4.85201958403969      6.94949671905170      0.03641501999423
  H   7.60484673611286      0.77095003637736      0.04322571138079
  H   3.23620882817307     -2.34952829548810      0.04393112841404
  H   6.99205813666186     -4.53542840619798      0.06404363578611
