31
Coordinates from ORCA-job 19082optt
  Br  0.67547537758219     -1.01554600148039      1.75235098524437
  C   2.18305686383738     -0.20836991987437      0.96161537704032
  C   3.06959607381379     -0.78626629016783      0.14563487083947
  S   4.46134440523950      0.12787623468871     -0.48051454296164
  C   3.75842443860939      1.66247316524719     -0.87034714901042
  C   2.70385955882624      2.18711843804916     -0.25195805799703
  C   1.73449320127662      3.13628131263668     -0.90336494256923
  C   1.09666247513533      2.52412754457129     -2.16521261414497
  C   0.50852391082732      1.11865466322328     -1.98286179357372
  N   1.50341922092589      0.07176249633910     -2.21069638731020
  C   1.02229282105386     -1.27282573632413     -1.91133464934246
  C   2.12891757068186     -2.28589270705207     -1.70101602778191
  C   2.02330154816448     -3.19263435325178     -0.51014989948893
  C   3.06446040208427     -2.11503777858693     -0.51533699567013
  S   2.34047218308149      1.52205843149831      1.34349483801185
  O   3.49218451528048      1.68425350711318      2.18108658943855
  O   1.06315576303817      2.01697940320058      1.77174189980433
  H   4.13567599378156      2.08603583262191     -1.79508407921808
  H   2.24725512675893      4.06459723091828     -1.16530106078300
  H   0.95794664071734      3.38865988046550     -0.18158132250561
  H   1.84085351233481      2.48704902348611     -2.96634780025069
  H   0.31065909998628      3.20114345850640     -2.50446367872053
  H   -0.36718816248333      1.00246380748747     -2.63699777194094
  H   0.14115048763341      1.00709068169408     -0.95573112928230
  H   1.85051499919794      0.12530421638115     -3.16186563902667
  H   0.33623239705891     -1.66004934811794     -2.67799005659163
  H   0.43621456918747     -1.20059275930151     -0.99523977992191
  H   2.58519726842741     -2.68483808919889     -2.59860702615448
  H   2.40476668560881     -4.20070914717652     -0.59286253344903
  H   1.14633812658169     -3.09032296125148      0.10738431932126
  H   4.06974292575050     -2.47284423634454     -0.70344394200465
