25
Coordinates from ORCA-job 19097optt
  Br  1.27271563229317      2.30531018019638      1.88529840288004
  C   2.38306867189587      1.18648257214932      0.83969773767691
  C   2.06852605545148     -0.15783253838341      0.65056632941334
  S   0.63474498371603     -0.80779421689526      1.49981292367469
  C   0.10339330812272     -2.00984803391834      0.32344084618098
  C   0.04208770427585     -3.31710953029211      0.54850565477202
  C   0.40519578751127     -4.27332700899847     -0.53276700262583
  N   1.40010010717145     -4.07290773495515     -1.30865649815998
  C   2.04840063029195     -2.82920265681781     -1.26240546508951
  C   2.68175838417610     -2.34877733616507     -0.20236355383761
  N   2.91618036627528     -0.93711160526943     -0.08579369992616
  C   4.03019342731135     -0.40512319303892     -0.68551031673114
  C   5.01283892774466     -0.94171844076089     -1.48029317240630
  N   5.92651467628831      0.03506533572179     -1.78771400577477
  C   5.56096718263457      1.16920467486377     -1.22027987532521
  C   4.35692165905226      0.99416493482229     -0.48924972782742
  C   3.53178984456939      1.76420060223203      0.28286313335530
  H   0.02092233800263     -1.62436326958852     -0.68515609150051
  H   0.11391042724565     -3.70664869306414      1.56018720090332
  H   -0.07815847765153     -5.24554021962882     -0.59159791544356
  H   1.89600197346891     -2.19633051335841     -2.13217201323396
  H   2.84782635281611     -2.92241879903893      0.70021518926989
  H   5.11812811605192     -1.95119761115078     -1.84126589684558
  H   6.13124995588544      2.07905456775199     -1.33156617515327
  H   3.73672196539915      2.81076853358692      0.47120399175433
