25
Coordinates from ORCA-job 19099optt
  Br  4.92337424497667     -0.73775817406826      2.83285946415365
  C   5.15370556784798     -0.50127570595888      0.98706320368211
  C   6.12767859522573      0.25970425915028      0.49842371057220
  S   6.29646835037133      0.36847042334716     -1.26407715641305
  C   6.00904983650225     -1.39779861802176     -1.51046032195325
  C   7.18971919484114     -1.96553256232058     -2.15722383248620
  C   7.84359990671894     -2.89529219882441     -1.45343044524953
  N   9.21424174642518     -3.09345768619623     -1.56703744871276
  C   10.00371434364617     -2.24053692690178     -1.05655256977990
  N   9.69113657082858     -1.14890401930475     -0.24624043553660
  C   8.71796988188898     -1.07856822431390      0.76624083165446
  N   8.13118314406676     -2.06479220033185      1.29671731006393
  C   8.43799169424837      0.29578194815388      1.29476028302411
  C   7.24529146603435      0.88195233577873      1.24513074783239
  N   5.09641444731307     -2.02377368871715     -0.90272304962190
  C   4.32778208230516     -1.35257513565217      0.07677913397095
  N   3.09227475469924     -1.52101717253630      0.25823083924336
  H   7.72525736686238     -1.35594798537745     -2.87376740222080
  H   7.30658649391927     -3.47255920103366     -0.70591752001914
  H   11.06537149299484     -2.32526440240994     -1.27742985548763
  H   10.34888213628001     -0.38428841914686     -0.27493139892630
  H   8.46561851468256     -2.95652719759780      0.93677173749019
  H   9.25775925346189      0.78723108258341      1.80925107185444
  H   7.08970148262751      1.84049881826929      1.72707948174159
  H   2.72622743123154     -2.16876934856901     -0.44051637887632
