22
Coordinates from ORCA-job 19093optt
  Br  1.53078926955869     -0.94849636672441     -2.73103520481806
  C   2.52902287344498     -0.10957527197228     -1.36772278398049
  C   2.90622561117191      1.19981048789372     -1.44253414592465
  S   2.36483419113102      2.22328785073722     -2.82510980956749
  C   0.90234728998443      2.61721776031352     -1.89856341341434
  C   1.07838879138728      3.42658086988224     -0.84563207377592
  C   0.71570961642357      2.90567759013618      0.45630948308202
  C   1.63764153078316      3.04679958636358      1.40842716289091
  O   1.81216541119664      2.09104766368003      2.37974722246006
  C   2.49981410307259      0.96064689502696      2.02687735200728
  O   2.40629758381187     -0.00477928664744      2.71683540224822
  C   3.52186697690776      1.00244736571001      0.90586396319555
  C   4.05962872744332     -0.17041616833384      0.50389750099828
  S   2.87212066967708     -1.32697939713619     -0.09832538019024
  C   3.66247684692826      1.89631572846920     -0.31114463770325
  N   4.30720647211225      2.95961265827093     -0.51076911737299
  H   0.13728973713908      1.84692663268972     -1.89358055803844
  H   1.88285061247961      4.15327089922081     -0.87835372864260
  H   0.01135812606416      2.08281315472069      0.51914748874936
  H   2.37417657814154      3.84088464810236      1.40847727602846
  H   4.93109011093764     -0.13264181717997     -0.14458880282673
  H   4.76869887020314      3.26754851677696      0.34477680459505
