25
Coordinates from ORCA-job 19098optt
  Br  2.66080582758430     -2.46210804083795     -0.26205759295926
  C   3.12990191900546     -0.64805210788799     -0.09331579655112
  C   2.27768475841903      0.32269197072258      0.31406060502086
  S   0.60214452928219     -0.08768760689583      0.66782751474559
  C   -0.21086934418818      1.28254235006983     -0.02655487531613
  C   0.29928897932718      2.05580298372559     -0.98876450864277
  C   0.02880511370124      3.50135236331486     -1.04605795476030
  N   0.24519674669030      4.27611172881458     -2.02612411478656
  C   -0.40364059719996      4.11611409517353      0.26651375928217
  N   -1.30782297504135      5.00050240604923      0.26805404046088
  C   0.18301417221293      3.61208923015682      1.56457759866892
  N   1.26402817749083      3.00806751969150      1.80406754292271
  C   2.31902522095943      2.82313937508303      0.91389749499231
  C   2.83830617332715      1.68750627397519      0.39967882946189
  C   4.12381731611022      1.81940044852271     -0.28371595744696
  N   4.88354478861010      0.86160714063853     -0.65303194871792
  N   4.42711897073341     -0.39618587100272     -0.41648468092425
  H   -1.06814779950150      1.59801071963386      0.55773996848415
  H   1.11385872237738      1.69420566560741     -1.60613153622792
  H   0.54281492828662      3.74186663832984     -2.84451070579079
  H   -1.51335500751687      5.31544733790651      1.21997380102380
  H   -0.47067428419342      3.79953722902267      2.42069822662746
  H   2.88269019627000      3.73545652834142      0.73917762436308
  H   4.51230486692736      2.81452949545185     -0.47178668183517
  H   5.01415860032615     -1.13494787360707     -0.76373065209467
