20
Coordinates from ORCA-job 19095optt
  Br  0.97646750957048      0.03977144755886     -0.10083744485119
  C   2.86429302078542      0.03629584964971     -0.09953585809385
  C   3.57662053364438      1.18027966025334     -0.09874445986140
  S   2.63466653174312      2.67566895706213     -0.09845163606030
  C   3.83176655543435      3.89634005225719     -0.09850905260309
  C   5.15849275764209      3.71337039256378     -0.09837234545831
  C   6.00007912086088      4.87507426199663     -0.09858392373319
  N   6.61727598680539      5.84210834502441     -0.09873592515188
  C   5.79580484114578      2.39427076394818     -0.09796958697097
  N   7.12057033461585      2.42275940254884     -0.09754014237901
  C   7.80159418883617      1.28314792471939     -0.09715489335045
  C   7.18254296238125      0.05292775123049     -0.09723606359218
  C   5.79145533759140      0.00236928404992     -0.09776268962810
  C   5.22577699411382     -1.37164595150980     -0.09804222476700
  O   5.90495039073843     -2.36376219722557     -0.09753910059534
  S   3.47470634222550     -1.58187383167749     -0.09943394672082
  C   5.04087666267998      1.18998222706774     -0.09809859566595
  H   3.41135558270193      4.89407435918843     -0.09869004501289
  H   8.88154085444281      1.36879550058215     -0.09679347734312
  H   7.74116349204091     -0.87195419928837     -0.09696858816095
