26
Coordinates from ORCA-job 19100optt
  Br  1.39087995766064     -0.41921099808883     -0.77990057971429
  C   3.15673096689099     -0.21573936756876     -0.17019402494487
  C   3.79893786664498      0.96587192528576     -0.34429597665241
  S   3.17527043419492      2.36745439710708     -1.15284222215865
  C   4.71278992498870      3.14011017004959     -0.99530310661046
  C   5.61793381487587      2.40303989333868     -0.34362281508332
  C   7.08100591522361      2.81453963121847     -0.25197163935656
  N   7.51410361269338      3.50454037633500     -1.42902528859074
  C   7.79236649960130      2.83624062706866     -2.59714927121723
  N   7.56066823633188      1.62704497662482     -2.89380142591320
  C   7.25133383356209      3.75722252680570      0.93987837720170
  O   7.73768384228893      4.84476876688228      0.83779096490056
  N   5.10184594858141      1.16497487303978      0.09735789898538
  C   5.74432211395842      0.21349262026502      0.94384527988058
  N   6.77328578569729      0.42277200369656      1.67345279146897
  C   5.10422950941291     -1.08386189907765      0.93677801826552
  C   3.86414427584645     -1.28194551317180      0.43887432150658
  H   4.91073343322048      4.08790856484114     -1.46739228990355
  H   7.69191360991651      1.91947743751460     -0.08363528314609
  H   7.94001529036826      4.40544791486121     -1.26561017705461
  H   8.25518304448329      3.48028922165646     -3.34351785577465
  H   7.11963224358842      1.10139432307704     -2.13960099753539
  H   6.86209908700833      3.39022452971576      1.90519119079793
  H   7.08389098539519      1.38182243804958      1.70029312957119
  H   5.64705447930608     -1.86850304541905      1.44221721500478
  H   3.39094528825960     -2.25237639410714      0.51118376607285
