25
Coordinates from ORCA-job 19107optt
  Br  2.03557556407606      0.09896297862598     -3.37400043190142
  C   2.96021225049981      0.47092105943811     -1.76514732152901
  C   3.71046365105262      1.59968319967266     -1.62037338095539
  S   3.18427548818920      3.08315819081507     -2.42627315119978
  C   1.54190203287859      3.02521334790633     -1.73789108843495
  C   1.30874944297181      2.61752707264902     -0.48627109844326
  C   -0.01727049654229      2.21468178765689      0.00459703279019
  N   -1.07323053910054      2.56148054676816     -0.60966972783844
  N   -0.07192435737677      1.47167020140701      1.21197890346344
  C   0.76419576423201      0.64767781509189      1.95201239339919
  C   1.96622713718800      0.07271441456152      1.77446607428341
  C   2.82148180323619      0.23530312378975      0.58862015413323
  N   3.87670309295349      1.08795361600574      0.70745618855527
  C   4.49997434899953      1.73462492601736     -0.38781533922256
  N   5.55231994892349      2.43463499205306     -0.30430909863881
  C   2.51835815780107     -0.27410733216562     -0.63826528728379
  H   0.72273585029809      3.21192480458025     -2.42265237515695
  H   2.12878918899379      2.49638052393596      0.20195733158113
  H   -1.91911618680725      2.17645646566227     -0.19436848148438
  H   -0.99801029211807      1.50878245279075      1.60828049584356
  H   0.29359037981027      0.42530645555111      2.90360456202539
  H   2.34123686376504     -0.49872048554224      2.61467603503713
  H   4.05640587887936      1.48170461644621      1.62069991461991
  H   5.92935675560049      2.45922951120057      0.64129649284086
  H   1.74799827159597     -1.02116428491783     -0.74360879648396
