19
Coordinates from ORCA-job 19118optt
  Br  1.12451840540657      0.09434823538132     -0.67662345788134
  C   2.91124769526759      0.06025679890960     -0.15862237936389
  C   3.68244311933105      1.16082001431823     -0.15930716322215
  S   3.15512327206732      2.78910950786463     -0.50336306982188
  C   4.74395086560289      3.38272805693202     -0.16815501624639
  C   5.62761565478590      2.42686524846133      0.13161797235808
  C   6.95389460227590      2.72489324226496      0.72970652673754
  O   7.44892030839666      3.81150941684834      0.64346746150987
  N   5.06349080900638      1.12747272224118      0.06910340883810
  C   5.72277855697086     -0.06907338194911     -0.10561163533374
  C   7.15336370757024     -0.09077661953230     -0.60038071035146
  O   7.77734966187378      0.88043181287599     -0.90686853450910
  N   5.17362112646583     -1.22229519807280     -0.06480912137837
  S   3.61133098035746     -1.42143395973075      0.44424944320815
  O   3.04363630424766     -2.52918648548142     -0.24062250293487
  O   3.64099242352952     -1.39286319169961      1.87142282999561
  H   4.95934994733870      4.43902579230210     -0.13171643193006
  H   7.41670448773954      1.91568190955022      1.31513348741383
  H   7.52866807176609     -1.11951392148394     -0.70362110708791
