24
Coordinates from ORCA-job 19113optt
  Br  1.70578087497317      1.83170414719165      1.36218699702017
  C   2.79206135384064      0.41578658694483      0.72806810234459
  C   2.39941043179281     -0.87946633833843      0.76741789367822
  S   0.80599184105453     -1.18848207452539      1.53445413103103
  C   0.40021224289170     -2.47785672106024      0.41402811220463
  C   1.15023990969434     -3.57033142139307      0.53176252591835
  C   1.92774570560421     -3.79225645659110     -0.70204873699546
  O   1.63861796377230     -4.28440144442449     -1.75275606818868
  C   3.24975237490396     -3.06426308432050     -0.45085087707195
  C   4.37606041190579     -3.87352126251366     -1.06686125754797
  C   4.68635519572582     -5.02301430452957     -0.21622520730409
  C   4.90256268829357     -5.96710516036402      0.48725846901310
  C   3.39071215756830     -1.89071077749973      0.22568404980695
  C   4.83335873083772     -1.42157971796683      0.34670427852551
  O   5.72280056962835     -2.18556154334720      0.63074892503692
  C   5.09014996419388     -0.00204220259185      0.07991635165211
  C   4.09666649132609      0.86662421526200      0.26725227518399
  H   -0.04331682973614     -2.18866262786858     -0.53237024786889
  H   1.64982517435380     -3.78832595393077      1.46885195684069
  H   5.27621719115493     -3.29346790967128     -1.24407026992118
  H   3.99707200140257     -4.24240200509620     -2.02343031275632
  H   5.11674625395703     -6.80246080681728      1.11005945651895
  H   6.10152040129378      0.29093672131281     -0.16561194391746
  H   4.24445689956677      1.93186014213895      0.15083139679679
