23
Coordinates from ORCA-job 19125optt
  Br  6.33458855699709     -4.95366349668821     -0.02790320309538
  C   4.83390598852531     -3.82229867596007      0.16106788295165
  C   4.02430536624656     -3.92662136776524      1.22283978633322
  S   2.49320162718877     -3.00922530640502      1.19394568295129
  C   2.26079288285819     -3.33401931339026     -0.54025017470085
  C   3.42575808553042     -2.83437849074988     -1.32448242311363
  N   4.63303336725906     -3.01850761074966     -0.96334398920085
  C   1.29576986067771     -4.13179945164926     -0.98071693983666
  C   1.22798447862276     -4.90233549820721     -2.28668989910409
  O   0.65526476637887     -4.55517138336030     -3.27921235237953
  N   1.77299963052444     -6.18656490919112     -2.13567266315168
  C   2.64163172748214     -6.43719666930290     -1.08812382980282
  N   2.81289661592326     -7.50008413747170     -0.41455357945332
  C   3.61797700468664     -7.17726808647120      0.71088085569800
  C   3.22855815637497     -6.15404530968853      1.48565049598675
  C   4.12847621737331     -5.16528354886906      2.14410225484757
  O   4.86402854777054     -5.27704181213006      3.07384953055737
  H   3.23739474483759     -2.24772410649495     -2.22065293079322
  H   0.56079312892165     -4.49193933788125     -0.26473965711179
  H   1.39744024630971     -6.92665990524747     -2.71395030777088
  H   3.21073538315595     -5.55125739973237     -0.84176070397192
  H   4.55646106663502     -7.70550102265588      0.82917082667356
  H   2.25000254971999     -5.74041315993834      1.26854533748721
