24
Coordinates from ORCA-job 19129optt
  Br  6.20997433789827      3.46738135968571      3.80487985938554
  C   4.65709129044726      2.53182351572203      3.25291151453635
  C   3.79188049677977      2.04993820204959      4.15838153075217
  S   2.33470084575753      1.22783971250808      3.59828215498594
  C   2.19652737984769      2.26647148429157      2.18207935607539
  C   3.41665980152531      2.23361590377009      1.35771785346037
  N   4.57864205420800      2.35567242409973      1.88008615276264
  C   1.19719501347402      3.14207390690083      2.00593612694817
  N   0.15464987551386      3.37850955221745      2.88748755473973
  C   0.38947204031399      3.83787225035272      4.05275615087022
  N   1.61133336560026      4.16643415160303      4.57371944821952
  C   1.84396719878812      4.73028456119187      5.83436521514340
  N   1.01769526929019      5.39440354194184      6.52650078353349
  C   3.20871033199943      4.54735054516821      6.39425899630629
  C   4.05448720502553      3.52310671729200      6.29304716677007
  C   3.87137868152643      2.17617404952190      5.64881561103302
  O   3.75797636875774      1.20205654983149      6.34428567830121
  H   3.35768405260157      2.12327187019361      0.27699453063139
  H   1.16004872095609      3.71191126180396      1.07922876329246
  H   -0.44693798353471      3.97821867218403      4.73090689545909
  H   2.42660909447841      3.97255330320418      4.00888659973794
  H   0.11826191460089      5.52336735508718      6.06859692182864
  H   3.48341592640765      5.36389222554505      7.05034458572741
  H   4.97157671773668      3.57577688383382      6.87053054949947
