22
Coordinates from ORCA-job 19122optt
  Br  2.09941042349655      2.34803614683977      0.58906610847323
  C   2.53388929675223      0.58803835791484      0.09890679465629
  C   1.76845339115299     -0.48796819242365      0.38883251575729
  S   0.37633167706153     -0.18942096595846      1.44935069362545
  C   -0.30161993706608     -1.79059053062710      1.61237018079906
  C   0.39654664130863     -2.86021304638219      1.97500497948642
  C   -0.08647689549836     -4.18926280678103      1.47279515898491
  O   -0.32092252561167     -5.16795111262343      2.13440334912892
  N   -0.26880190697754     -4.12350696923946      0.10790258275967
  C   0.25359069238923     -3.06186976637765     -0.70109158118558
  N   -0.40141235017647     -2.49278310600317     -1.62381001331985
  N   1.59466987764001     -2.82995094624179     -0.50814842384640
  C   2.23917734489217     -1.77719830899271     -0.20368854138003
  N   3.61928438645270     -1.85205399466226     -0.42660411030885
  C   4.28033182782529     -0.78439085215423     -0.63552481052362
  N   3.74454797374199      0.46334662894941     -0.53262278759947
  H   -1.29382035570366     -1.89960802034294      1.19178663449832
  H   1.38052683781993     -2.80148076791267      2.42345268837952
  H   -0.64553249803418     -4.94188530544122     -0.34936032487928
  H   -1.35053777516813     -2.85709009907025     -1.66658512918498
  H   5.33099868382622     -0.82851809457123     -0.90168249471882
  H   4.28636518987659      1.28632175210146     -0.74075346960223
