22
Coordinates from ORCA-job 19131optt
  Br  2.83328903732692     -0.59972103951981     -2.93406005924555
  C   4.07683831376701      0.33343759403328     -1.85837406979988
  C   4.51227439133979      1.55830191862418     -2.16864108761176
  S   5.59700894589582      2.27578416048717     -0.96583244556353
  C   6.65759597695388      0.84206994184686     -0.83431792743741
  C   6.04548736977669     -0.33256784961269     -0.70080451585974
  N   4.65000481368174     -0.39705607868508     -0.82251191054926
  C   7.91897983758287      1.16439621418086     -1.54131968907403
  N   8.13123692241068      0.58634318320571     -2.64237164742733
  C   8.57962192214798      1.21950352947187     -3.80950868571182
  O   9.59483087348921      1.04213559231095     -4.40628991458787
  N   7.52384341326501      2.08953106858777     -4.21454683786906
  C   6.36434853078653      1.58894275328089     -4.24827057168243
  N   5.19263437758398      2.33663696621277     -4.39203765837853
  C   4.31805114466751      2.25269425589670     -3.47217962017111
  C   3.02082128317869      2.97702212069548     -3.72332582483581
  O   2.14940458786879      3.03418454138881     -2.90708027497957
  H   6.57880190992198     -1.27438014726978     -0.65720371857634
  H   4.21690857759106     -1.28581434681614     -0.62674547011501
  H   8.42469360919506      2.08809510445182     -1.25225384727225
  H   6.18038381431122      0.51201967886799     -4.16383010713048
  H   2.95594034725748      3.44344083836036     -4.72049411612117
