23
Coordinates from ORCA-job 19141optt
  Br  0.85862494872155      0.13863774983305      0.16098723539170
  C   2.72932371835062     -0.03680392449110      0.15428222164568
  C   3.51719230119554      1.07083199318859      0.01045655642539
  S   3.01803713769247      2.71557873036855     -0.16802827054629
  C   4.67688810020753      3.22310309911717     -0.25071674586840
  C   5.52687553190467      2.19807373182284     -0.14784880515598
  N   4.88389854114582      0.97293360727801     -0.00129489934781
  C   5.58590450933127     -0.24868875470232      0.11527214692035
  C   4.72950282172082     -1.38824927583161      0.29093104741077
  C   3.37077984419837     -1.27845036002453      0.31120591202200
  N   6.86909546656353     -0.16681905705799      0.07693808944482
  C   7.65105005088372     -1.30804971694821      0.09950200590381
  C   8.78165638250600     -1.60191609013883      0.81528468817162
  N   9.28062298311554     -2.82857051568685      0.45247398401384
  C   8.48401442864830     -3.27481011631148     -0.47634576082185
  N   7.46891501510884     -2.40005276167516     -0.72725231512422
  H   4.92903087894231      4.26269663599337     -0.37046367619623
  H   6.60377544965844      2.19674506828083     -0.16373163962237
  H   5.19985514223766     -2.34647299718879      0.45063780741806
  H   2.76249735676425     -2.16086624673749      0.46349431646761
  H   9.24898510143410     -0.99241908788857      1.56995953302019
  H   8.58038610420839     -4.21107017038037     -1.00234587748031
  H   6.76808818546015     -2.47936154081911     -1.44439755409238
