23
Coordinates from ORCA-job 19142optt
  Br  1.02146706575315      0.02807295403352     -0.30867952733480
  C   2.88823724424489      0.01470637723337     -0.15898095200360
  C   3.54682757807752     -1.17448261242479     -0.15031425326155
  S   2.85134796564518     -2.76606649071690     -0.22285536554770
  C   4.43774823665314     -3.47111518269781     -0.16738380032687
  C   5.42019266846165     -2.56048651539432     -0.08306014671539
  N   4.91974447127410     -1.24754010909969     -0.05470871813567
  C   5.64775093424848     -0.09099029300326      0.09556567893452
  C   5.04608417083601      1.11060898358974      0.09931944925470
  C   3.59992532371536      1.28157407713712     -0.05042723569261
  O   3.06012502126417      2.37440553244640     -0.06767623441663
  C   6.84952753881902     -2.83150806020297     -0.05455316062968
  C   7.90255943381198     -2.28904776641182     -0.75886231073906
  C   9.06510686375299     -3.01697932082446     -0.41150369359758
  C   8.69065014517895     -3.97785367307110      0.49362696921561
  N   7.34939585904733     -3.86080413778489      0.69837685894388
  H   4.57296336089131     -4.53498721631143     -0.26580710134691
  H   6.71097403909841     -0.22854790470529      0.21819155606835
  H   5.63498854017653      2.00825731589843      0.22098568532663
  H   7.83022865397534     -1.48673540627184     -1.47485539983570
  H   10.06176479514536     -2.85674739558128     -0.78595372269918
  H   9.26925162377336     -4.72207900448585      1.01307567081216
  H   6.80513846615571     -4.39865415135086      1.35147975372709
