23
Coordinates from ORCA-job 19148optt
  Br  0.96956956094243      0.05219312684816      0.03761165003058
  C   2.83646374499782      0.01655388746323      0.03771729383707
  C   3.55590160909224      1.16786938976367      0.03841245497920
  S   2.94414560874848      2.78937466938283      0.03934066258784
  C   4.57138578388149      3.42372266044270      0.04016908686885
  C   5.49085359767271      2.45967571212120      0.03943547058109
  N   4.92984785690870      1.18445648955304      0.03846662808507
  C   5.69544721655430      0.01222573893635      0.03781647970406
  N   4.93227201691312     -1.12874778326434      0.03720908292789
  C   3.52545579516692     -1.25188954222015      0.03718645952821
  O   3.03242086523950     -2.35311037987948      0.03634879745095
  N   6.95791252681288      0.10898039412451      0.03786568284449
  C   7.73020443105579     -1.09445108427506      0.03721007998471
  C   9.21045369196670     -0.79264829816345      0.03745095005462
  O   9.70062782320825      0.29938350059124      0.03821672271923
  C   10.13410272119123     -2.01348767930740      0.03542808332964
  O   9.71196506560613     -3.13270645327948      0.03367992125277
  H   4.74708253939189      4.48538369494448      0.04106403700497
  H   6.56611753945165      2.53249765845737      0.03961028908777
  H   5.40925088324869     -2.01934822523954      0.03665048153325
  H   7.54049090637617     -1.73521914731042     -0.83773898894364
  H   7.54048055506046     -1.73616266638335      0.91147705727979
  H   11.21054766051239     -1.76754566330609      0.03537161727158
