24
Coordinates from ORCA-job 19149optt
  Br  1.14778645352893      0.34318099863239      0.61459928725847
  C   2.99969694455202      0.19519541592400      0.32881747765130
  C   3.76711998738198      1.30605369688390      0.25986089598643
  S   3.21844718980915      2.95082389276096      0.41663356724849
  C   4.83749242704486      3.51279525785749      0.23937294295372
  C   5.72256177471196      2.51908703837892      0.06821186204632
  N   5.13677367722359      1.24596317254882      0.03269909932962
  C   5.75261784918769      0.03367782172319     -0.42190861871362
  N   6.87330376943485     -0.07008497086450     -1.00607920989753
  C   4.93604330029525     -1.14074964374002     -0.16204196666446
  C   3.63276657055562     -1.06994907881428      0.17236694624992
  C   7.17616016761702      2.76251027949729      0.23724394410672
  O   7.95167252415416      2.00194954763503      0.73741444414278
  O   7.49207134255564      3.99735280115667     -0.19386467459214
  C   8.79908324283007      4.45887760723431      0.16558857231650
  C   8.82771960232778      4.94362609823718      1.54298166170729
  C   8.84184326817345      5.34894935258632      2.66804248242837
  H   5.08729375843972      4.55508025479903      0.34318342246603
  H   7.36720638281545      0.80097596758212     -1.14796265653523
  H   5.43023524690045     -2.08670934669599     -0.32598403936577
  H   3.04639297168210     -1.96916915821114      0.30667338955142
  H   9.01555242103648      5.26771759921355     -0.52882143290889
  H   9.52391452610632      3.65667254647119      0.03052072411723
  H   8.85824460163534      5.70017284920353      3.67245187911703
