20
Coordinates from ORCA-job 19155optt
  Br  0.98021304880804     -0.23848553931585      0.25694058866301
  C   2.83737988965859     -0.16536034010899      0.09516330160292
  C   3.47890031960049      1.03053842685534      0.00218308579143
  S   2.80986559946615      2.62741606824512      0.00034637844787
  C   4.42395464022304      3.30575587943968     -0.14396190864821
  C   5.37415957336875      2.34965874607825     -0.18765882750543
  N   4.85213876300686      1.08426398160978     -0.10854621423954
  N   5.65134149852612      0.00220408113764     -0.13645953265884
  C   5.06838106469799     -1.13899582786332     -0.05227346615882
  C   3.61233436913116     -1.38472401511500      0.07472431355622
  O   3.16992572189979     -2.51348506242071      0.15189477543710
  C   4.53593154962475      4.76058783548053     -0.19718363442637
  O   3.56611795193785      5.47439632079486     -0.16086619300916
  C   5.94012724459968      5.39368976852696     -0.29640145067068
  O   6.94034513818107      4.72826878852279     -0.31514874511061
  C   5.94251237592847      6.84055407149958     -0.35932696857871
  C   5.94951905503851      8.03630335404278     -0.41197715931925
  H   6.44157111391945      2.46271089526691     -0.27309680966012
  H   5.71124883520214     -2.01095892668806     -0.07343929316304
  H   5.95503224718102      9.10066149401162     -0.45891224034979
