21
Coordinates from ORCA-job 19154optt
  Br  1.61494491780251      0.10892585679142      2.06529977183068
  C   2.99292117252035      0.05733947554946      0.78995654180919
  C   3.53359752920210     -1.08817508096938      0.36196181730926
  S   3.04887107226118     -2.74052587653531      0.62012890999776
  C   4.51137904036558     -3.29314662872024     -0.18382710138868
  C   5.28753969111974     -2.29254027225971     -0.58644149993742
  N   4.75010110638655     -1.02946918911519     -0.32509057264349
  N   5.59348711344361      0.01900902792904     -0.09358406529774
  C   5.04851136253311      1.10236152610526      0.28861887609636
  N   3.64387036913993      1.25947017144289      0.41110424511370
  C   2.93212769451214      2.22547223117652     -0.31220749082112
  N   1.73945748494834      2.14380886309924     -0.70296384506818
  C   3.63310235910553      3.56169195894045     -0.53903347046078
  O   3.11159922980512      4.45995153660467     -1.11435643373745
  S   5.26113775942003      3.86086736708668      0.15667716723661
  C   5.91445102098492      2.26912233345710      0.59060212623445
  N   7.06056277970840      2.10929851337387      1.08327524915776
  H   4.69237478827563     -4.34631907008343     -0.31068017470288
  H   6.24382432066258     -2.34081553899006     -1.08116900286164
  H   1.32465928555456      1.23368774793874     -0.50466028872787
  H   7.56647990224806      2.98798504717797      1.19838924086148
