25
Coordinates from ORCA-job 19158optt
  Br  1.16010487356323     -0.09753178958307     -0.38654849424471
  C   3.00509232607270     -0.01733733576761     -0.07370994687358
  C   3.72217453545155     -1.16348567861451     -0.11925980218726
  S   3.13328046836437     -2.77734968936122     -0.42261676548168
  C   4.74872589836898     -3.41241908054726     -0.25565042612574
  C   5.64796549227453     -2.46441515645647      0.03738745338469
  N   7.01261529130656     -2.59573556595262      0.26446443223501
  C   7.97934107790098     -2.25905411791424     -0.80022007779673
  C   9.21539679565376     -3.04913790372879     -0.33022609634570
  N   8.70798269403272     -4.06787470605204      0.59899069375698
  C   7.51935040078420     -3.74861362501222      0.87642143660735
  N   5.08176785459936     -1.18553349636293      0.12323724411808
  C   5.72674952270774     -0.02147238814171      0.46938198292086
  C   5.06242504314535      1.14283110035435      0.51872238029853
  C   3.63140637136223      1.26471805439082      0.22555153500130
  N   2.95252854638094      2.35075785509401      0.23381970392938
  H   4.95849229313181     -4.45773113218360     -0.40751341452264
  H   8.14708074275915     -1.18582533565875     -0.86862828958722
  H   7.59977182600656     -2.62158703498604     -1.76002132529191
  H   9.91685817090641     -2.41106777834165      0.21175556339037
  H   9.75395057963492     -3.51552984586849     -1.15254391388360
  H   6.88240557876142     -4.28227395734337      1.57267263561695
  H   6.77499217979523     -0.12795015714015      0.70589475751436
  H   5.60132568877737      2.03845191266393      0.79743732365131
  H   3.54721574825785      3.14316685251366      0.46620140991561
