20
Coordinates from ORCA-job 19153optt
  Br  1.01807966192855     -0.16086197187186      0.33951861645144
  C   2.89070101232776     -0.03321148942948      0.30794189446032
  C   3.63240162849502     -1.08450885086179     -0.03695526212618
  S   3.00738971202386     -2.65581650210538     -0.51216828424848
  C   4.61887382937130     -3.28588761990925     -0.53850099111207
  C   5.57119739683615     -2.37884595627116     -0.29311457073078
  N   5.04509323446784     -1.07161646235895     -0.09833755506209
  C   5.77827824186677      0.07449613834328     -0.33968161075032
  O   6.90839982599266      0.04737687664828     -0.75200603939702
  C   5.14086682740435      1.42077889186008     -0.01887019442944
  N   5.78966792952820      2.48482001664751     -0.17990901685386
  S   3.54583401202351      1.52530927237991      0.71552993485017
  C   6.95820376641977     -2.73830865940995     -0.05730387359694
  C   8.04436383905696     -2.17339306091070      0.52490652450400
  N   9.01672669055272     -3.14139593382678      0.54872647259471
  N   8.59945387333993     -4.19753498682032      0.03614512131026
  O   7.28179912988628     -3.99702752615724     -0.36666990846960
  H   4.79643332040361     -4.33932470942148     -0.68046417941298
  H   6.72431345489801      2.26471874448775     -0.53493801447081
  H   8.21292261317669     -1.18276621101245      0.89915093648969
