24
Coordinates from ORCA-job 19150optt
  Br  1.03961410886720     -0.23431862142756      0.48088629859153
  C   2.90431032678896     -0.16667340911517      0.24659126294166
  C   3.51960919295707      1.02755254668954      0.08828137904492
  S   2.81914996156439      2.61421796597770      0.06514751006292
  C   4.41212088844740      3.29492726523246     -0.19023567804558
  C   5.37273781102447      2.35873611969742     -0.24662768757070
  N   4.89532888144521      1.07438634001630     -0.08839447302630
  C   5.68392347129792     -0.09460170264563     -0.10258684520880
  N   6.94834248126384     -0.15105907635604     -0.25048284165966
  C   4.88661420677392     -1.31564515233686      0.07664460440907
  C   5.63281897005079     -2.62329966671998      0.02043014929561
  N   6.22116392891707     -2.86657521608866     -1.28274130751866
  C   5.40434022139411     -3.16997261057182     -2.34727581766316
  N   5.64705178287618     -3.06735365929748     -3.58657278253735
  N   3.60545427567970     -1.32010428031421      0.23655363426716
  C   4.61425896266894      4.69175747076594     -0.32291740659598
  N   4.76564460409200      5.82433095729778     -0.42729850437560
  H   6.42261618340344      2.54233769287271     -0.40203457167119
  H   7.41020329680211      0.74553135594731     -0.35549888028163
  H   4.92821170991776     -3.41908806896613      0.25711032066358
  H   6.43131374897488     -2.62534861869509      0.76209582694604
  H   7.02827723043313     -2.29055590736923     -1.48213098556272
  H   4.44127755492890     -3.57831573701482     -2.03451998120283
  H   6.57161619943059     -2.66986598757848     -3.75842322330232
