22
Coordinates from ORCA-job 19151optt
  Br  1.24590313139606     -0.92403772795716      0.44539120038425
  C   3.10939432964711     -0.74485313005931      0.21721402317697
  C   3.57668697486042      0.51623668186979      0.12046920658325
  S   2.64267968518690      1.99117364382386      0.16059853714729
  C   4.08651279532784      2.93734369424673     -0.12528248838382
  C   5.17960141903926      2.18895248541756     -0.22707110897885
  N   4.91983228416473      0.82189875282985     -0.07978226773193
  C   5.92084244654727     -0.13359814490545     -0.08804300479855
  O   7.06769502957210      0.15128733163772     -0.28341364659837
  C   5.46218025683033     -1.55640884319003      0.19820811228805
  N   6.42479554018875     -2.31906904491709      0.55435706970660
  C   5.82836849967468     -3.56254628493041      0.77521635644083
  N   5.45866968029156     -4.23060840370208     -0.22486130374153
  C   4.07662081409555     -4.46476067930679     -0.23490139291146
  N   3.40787081420576     -5.50393141157308     -0.50428005898477
  C   3.40603455686383     -3.15238554340253     -0.05197590683334
  C   3.97455585319011     -1.91672831034045      0.10763783650351
  H   4.02924085062571      4.00989362593452     -0.19833715878527
  H   6.19979146978770      2.49022502015304     -0.39784662155833
  H   5.47081074454939     -3.71151150790614      1.80358288148105
  H   4.02056130696054     -6.31106047610784     -0.60939943234475
  H   2.32635151699439     -3.20751172761468     -0.09148083206085
