23
Coordinates from ORCA-job 19165optt
  Br  8.80241519211061     -2.36202904955596     -0.06238081851224
  C   7.14995992924300     -1.46217865407351     -0.10306316083433
  C   5.95532908129375     -2.12629729274077      0.08962777546455
  S   6.13362871960603     -3.84526591666836      0.56244892619827
  C   4.43795640393266     -4.18084417793987      0.68289763463602
  C   3.74390809335837     -4.24076901926211     -0.44980216424818
  N   2.40931228709083     -3.86599058406022     -0.45718973509016
  C   2.24642170904127     -2.64918232338323     -0.13411675987271
  C   3.22536109984198     -1.53123541537362      0.03122453326734
  C   2.64100192833462     -0.32432092861917      0.04334702912025
  C   3.65447195211367      0.75533117236104     -0.07575211692611
  O   3.43836528675039      1.94272677353120     -0.11797464874826
  C   4.94400170534171      0.06435658831921     -0.14092300149877
  C   4.77728978209310     -1.29741519115499     -0.00631166040118
  C   6.19943309403019      0.75936878310841     -0.28425357418412
  N   6.46793841325567      1.99479245878747     -0.40326199000685
  N   7.26866827504147     -0.14600892213461     -0.31754168162380
  H   3.93606502521207     -4.01998022828532      1.62986964860750
  H   4.20585335670408     -4.46809519819601     -1.40550403497323
  H   1.21992156882905     -2.29660545381699     -0.05361100123878
  H   1.57855563729703     -0.13030306841280      0.05018841498491
  H   5.61715926333795      2.54916994273594     -0.37629006262059
  H   8.18298219614046      0.26577570483428     -0.45462755149951
