24
Coordinates from ORCA-job 19167optt
  Br  2.97475014617712      1.96713835913826     -3.76139900303153
  C   3.72953770970260      1.12752624159033     -2.23939348666120
  C   3.51625806258390      1.63099949705656     -0.97254828308287
  S   2.43059574623725      2.96795251995666     -0.57939665980256
  C   1.05555619332925      2.23349084301277      0.28955717450247
  C   0.97875940273188      1.13128605878111      1.06876611537224
  N   2.09993364607409      0.39336465306733      1.41168493452838
  C   2.19899015421339     -0.85479148157571      1.80710199612652
  C   3.38974682629375     -1.60507181022606      1.71500431583898
  C   4.40860812701589     -1.42704824755310      0.79123051329980
  C   4.57578186984193     -0.38899334557235     -0.16216080284394
  C   4.82211464070764     -0.72160755170515     -1.50623053843015
  N   4.46092396969738      0.03977791287370     -2.51731204163381
  C   4.23351204126703      0.98803817714129      0.09934640306293
  O   4.39313036621964      1.50252228514667      1.22506061730623
  C   -0.12889152895037      3.00512855939831      0.10382485844901
  C   -1.10433532835576      3.68286152602667     -0.06059146144067
  H   0.01679890263344      0.78234983629658      1.42367605997894
  H   2.98882850575639      0.95145489446707      1.47860219216594
  H   1.28938425561357     -1.35701334401038      2.12817045184993
  H   3.37125926922578     -2.55581098816199      2.23020315449061
  H   5.02788170723663     -2.30833138761189      0.63863425508794
  H   5.26000439258616     -1.68448793492102     -1.75604540327599
  H   -1.97112907783864      4.28226472738435     -0.20678536185718
