22
Coordinates from ORCA-job 19163optt
  Br  2.08672705186585     -2.20481177926043     -2.10452495073576
  C   3.28394627848466     -1.31977723303067     -0.96161283922628
  C   2.95130197231615     -0.93364594342436      0.28233924116741
  S   4.01393319592877      0.06929863722047      1.25698569650378
  C   5.56314642488272     -0.52760417567128      0.73547598872117
  C   5.70455527621348     -1.28607456856774     -0.35572805058889
  N   6.52527137891181     -2.46800962983092     -0.40060238646125
  C   5.52675751750233     -3.44399940537585     -0.00811922256310
  C   4.81806643674523     -4.18593498934891     -0.88944636098847
  O   3.62312714404191     -4.53987016853328     -0.34864508103605
  C   3.54996149825074     -3.94914163702047      0.86802429514940
  C   4.71928875766261     -3.35475335140520      1.18785488998893
  N   2.31787362811346     -4.01713612315494      1.49786431373287
  C   1.52614016803631     -3.04640879891196      1.61144205950262
  S   1.43055162381260     -1.33667631019442      1.08583053530168
  C   4.69019759998670     -1.24133682577082     -1.45975554018393
  O   4.99151824457649     -1.28698520969411     -2.62083484319454
  H   6.30895937413081     -0.51756025071726      1.52166709870324
  H   7.28201498374536     -2.40965004363420      0.27246852000575
  H   4.98880963748637     -4.45071515652799     -1.91815504366699
  H   4.91510591080758     -2.79079784433018      2.08348968043621
  H   0.58774589649800     -3.21740919281543      2.14098199943218
