22
Coordinates from ORCA-job 19168optt
  Br  1.36449795091535      0.83207429096533      0.14307325716766
  C   3.17042048431328      0.34261992131274      0.00172870600322
  C   3.54988666897260     -0.95207438618543     -0.01166197982799
  S   2.38604725672649     -2.23674291101715      0.12655840449724
  C   3.43780574494849     -3.62958354160543      0.07186500090282
  C   2.73173163779939     -4.86739250196736      0.15232525967994
  N   2.14613866970972     -5.85219005217120      0.22242837751963
  C   4.78259916811085     -3.58262936459782     -0.03822834885814
  C   5.63419123197534     -4.82788898133089     -0.09986465571424
  C   6.23245566982984     -4.97182596042828     -1.42598789179324
  C   6.70799804636309     -5.07298632100311     -2.51929567305309
  N   5.50354324884813     -2.41351628014817     -0.12649004775542
  C   4.97432426066456     -1.24654570007908     -0.13000276764642
  C   5.91755615340042     -0.06850806554582     -0.28403820295327
  N   7.15020528543014     -0.22450805001033     -0.51704406573920
  N   5.41588757101339      1.23773096078120     -0.18037603945633
  C   4.15919975477919      1.40686186148436     -0.06017155075551
  H   5.05155466825030     -5.71572720291288      0.14473541793652
  H   6.42728333419898     -4.72679738404610      0.64503383034885
  H   7.13184505593620     -5.16845444134644     -3.49064651376040
  H   7.36185364163675     -1.22322561317221     -0.57396459611843
  H   3.78497449617743      2.42530972302410      0.01302407937579
