22
Coordinates from ORCA-job 19161optt
  Br  1.16916426609214     -0.03365821285150     -0.26978908218651
  C   3.03791568832101     -0.01576129756669     -0.13861242368563
  C   3.69862379401262     -1.19519617193527     -0.15163810038029
  S   2.99675466551756     -2.78932153917308     -0.24204507111003
  C   4.57878591819527     -3.50406438436299     -0.20728806149076
  C   5.54071352542560     -2.58455297923439     -0.11346961198464
  N   6.91209283253865     -2.87628261979775     -0.04286677236286
  N   7.84422441901541     -2.15762451298354     -0.65230465442542
  C   8.95020355031433     -2.85820842902963     -0.47612600851744
  C   8.62794374881294     -4.02170627443094      0.23976688463764
  N   7.33275417814493     -4.00929533709163      0.49780740638314
  N   5.08207747206946     -1.26867283797277     -0.06899940506834
  C   5.80626977382071     -0.10187351936045      0.07337617853741
  C   5.18900642730180      1.08807711298472      0.10224092844940
  C   3.74005710017183      1.25510440666836     -0.01903971971851
  N   3.10627843390430      2.36741704643278     -0.01990221793794
  H   4.73237706250670     -4.56762546160651     -0.25655858435869
  H   9.89455314390841     -2.50865643008258     -0.85606842091769
  H   9.25313186718444     -4.83188318749793      0.57272955824403
  H   6.87468151365994     -0.21888306859566      0.14104303130036
  H   5.79371988308377      1.97811419862657      0.21279212132160
  H   3.75167073599812      3.14855349886088      0.07495202527116
