23
Coordinates from ORCA-job 19164optt
  Br  2.27138556289920      0.86523964053970      0.79466814757516
  C   3.00021388331138     -0.85619081332054      0.80329387575634
  C   3.98495719659825     -1.27148373768277      1.64630191391541
  S   5.39582537696816     -0.15791155914636      1.53566835428696
  C   5.59896927550131     -0.79865841350946     -0.11309899348316
  C   4.70490733981708     -1.56859762100272     -0.79485994790255
  N   5.24942795735633     -2.66148085816725     -1.47857383182816
  C   4.83417568170871     -3.77557346816073     -1.01781525492404
  N   3.60396180612029     -4.28841993214309     -0.82534658498531
  C   3.59553814012055     -5.26009992772393      0.24612262140533
  C   5.08147487307945     -5.26363128497859      0.63195688987694
  O   5.73428522343903     -4.67061328899629     -0.45857140842902
  O   5.40682748869435     -4.58661393974686      1.85671775236441
  C   5.10988832407113     -3.30128245913947      2.11886960310573
  N   4.19731850541494     -2.65039930345350      1.54224368428186
  C   3.19209624425948     -1.47676463103741     -0.55495899934960
  O   2.36973918506833     -1.72982800649330     -1.39196022595594
  H   6.63566912127294     -0.88533841181532     -0.41223591676081
  H   2.78971216666483     -3.76516646576301     -1.10726331155767
  H   3.28478792739229     -6.24579257370339     -0.10114225622997
  H   2.97038227757782     -4.94437045575444      1.07993828481377
  H   5.49526862290864     -6.25314352811793      0.79122188621539
  H   5.75418781975546     -2.91287896068328      2.90782371780892
