24
Coordinates from ORCA-job 19177optt
  Br  0.81415175837473     -0.01613829678331      0.06143838629079
  C   2.65892503849510     -0.08173486115381     -0.18595153636868
  C   3.42947132252112     -1.08090266377790      0.30290003725541
  S   2.95116776592319     -2.48338746573686      1.19922932822952
  C   4.61030491636100     -3.03344599370883      1.26455549787297
  C   5.49942552436457     -2.24033211181147      0.64028355140341
  N   6.85481819087419     -2.51692649336692      0.45795546587635
  C   7.88023172905295     -1.68778872302414      0.88365555699836
  N   7.78477056596282     -0.59886305059723      1.51759464501108
  C   9.26266295355794     -2.15381864855984      0.45638082665607
  C   9.42365171405608     -3.60310163500843      0.39383236406472
  C   9.52126837691314     -4.79549886127427      0.32945498812553
  C   4.84841658022939     -1.07253740484774      0.06059389091699
  N   5.44186712589382     -0.14222142623445     -0.61836471262199
  N   4.66168935361750      0.82082628308455     -1.07979990428469
  C   3.28146352554280      0.98426981743374     -0.95771215955196
  O   2.72677746661714      1.93107184647707     -1.47012125933394
  H   4.83517850105949     -3.95752913490944      1.77490637440819
  H   7.10967625889236     -3.47190773862705      0.25244407524924
  H   6.81950953637680     -0.35008218989296      1.72405922950097
  H   9.98019117729905     -1.71376150467587      1.14641042536284
  H   9.45689139351341     -1.73187922863738     -0.53353194859590
  H   9.63284812907139     -5.85234092544694      0.27508745198188
  H   5.13364109542987      1.54303041107949     -1.60830057444718
