25
Coordinates from ORCA-job 19170optt
  Br  1.50671866707583     -2.96880394313576      1.12096749808090
  C   2.40565910497720     -1.48537335864429      0.36207664090575
  C   1.80987840015427     -0.25625791180776      0.29982503005358
  S   0.21876089949556     -0.01010404035838      1.02142121184534
  C   -0.13624052429229      1.62920544004587      0.50680605803748
  C   -0.13438292750433      2.68948879980146      1.33775411838052
  N   0.13356411450581      3.93403657743966      0.77855289183028
  C   1.02013530041742      4.13956881782675     -0.24203869707554
  C   1.91164597349544      3.23313683099982     -0.77948114437785
  N   1.86133238623621      1.96196089813366     -0.39264874768640
  C   2.55697411128459      0.89761114480177     -0.26097341601046
  C   3.94894915958301      0.68726601286418     -0.56640633228203
  C   4.96034318190160      1.47166373920202     -1.04770423046086
  N   6.12523716973771      0.73339645650942     -1.25988811673125
  C   5.86405475044722     -0.50085842544257     -0.93552939747758
  C   4.49986036558965     -0.64276221170865     -0.47890377283048
  C   3.75618803756036     -1.69390343651857     -0.05112617149049
  H   -0.37430324993851      1.77601154369643     -0.53626160897017
  H   -0.10929023874362      2.61385199648813      2.41750869620870
  H   -0.20806428270057      4.75883905337214      1.24696153411253
  H   1.08038858739124      5.16742012969643     -0.57129684355556
  H   2.61009578801678      3.58887929532961     -1.53348870636256
  H   4.95238061183450      2.53012002219877     -1.25968318915013
  H   6.60530484201572     -1.28476966763476     -1.01272334485885
  H   4.16980977145916     -2.69262376315540      0.02028003986514
