25
Coordinates from ORCA-job 19175optt
  Br  1.59809488975036     -2.60325983649533     -1.00338485699246
  C   3.02820342091873     -1.75051752310714     -0.11424342724435
  C   3.24770904274563     -1.98255485963416      1.20259704019869
  S   4.48279126728626     -0.98592803521824      2.01819446184301
  C   5.73699132609709     -1.17996969642481      0.81475409597954
  C   5.48399017886009     -1.57649690906351     -0.43663386193405
  N   6.46148535174044     -2.26024774135766     -1.20594288229307
  C   6.71616906171587     -3.63852969054062     -1.21365473594434
  N   6.15062929948272     -4.65220409439121     -0.69194229544116
  C   4.89924985105937     -4.53152762816424     -0.00407501566307
  C   4.04770984996635     -5.79731958949451      0.26412085291389
  O   3.06927603339406     -5.33396668461325      1.26752917531047
  C   3.47354662246273     -4.10032631905599      1.63799640216261
  C   4.95994009234319     -4.08671393000299      1.45507235699980
  N   2.66236043989669     -3.12051853778777      1.77870171588010
  C   4.13066832779800     -1.36473696758437     -1.03492976640013
  O   4.00271022523228     -1.14986084429545     -2.21306485277076
  H   6.74665291210216     -1.14485288412494      1.20551985681506
  H   6.78910145203010     -1.79057029650246     -2.03852675234008
  H   7.60715799078157     -3.83819901770817     -1.80651324317667
  H   4.24575540834595     -3.85423282303180     -0.56260861038457
  H   4.65116335677472     -6.60230107903126      0.68329597967181
  H   3.46825249494328     -6.14971554192916     -0.58507012208002
  H   5.47512974533456     -3.17287519849682      1.66751446400148
  H   5.40426135893775     -4.88757427194411      2.05029402088828
