21
Coordinates from ORCA-job 19171optt
  Br  1.69027961042649     -2.32543801214176     -0.95233065161439
  C   2.16013255882644     -0.71934251612363     -0.09451818100423
  C   1.27800756578340      0.28360154073687      0.06677286769580
  S   -0.34412560430359      0.24466952829419     -0.64792548783593
  C   -0.42754501991125      1.93305221260336     -1.08517562715252
  C   0.67255190949572      2.59898544700133     -1.44438243015269
  N   0.86770796050242      3.95381365639292     -1.16099871934830
  C   0.71485284052744      4.28475560059259      0.05180970042652
  C   0.34100574513066      3.36948360558166      1.20954433910554
  N   0.71039771523005      2.20041874232407      1.50375025921054
  C   1.70412799666281      1.45953791516574      0.85577753513925
  N   2.90668674574855      1.80352940465827      1.11377360517828
  C   4.00742686231156      1.05121415811230      0.72781742842825
  N   5.18962785949275      1.47963233386885      0.65569102846613
  S   3.80710154151862     -0.69796962644508      0.43398637324045
  C   -0.60249551433931      4.01218397698290      2.11482703876334
  N   -1.34243752268978      4.58503361069214      2.77575736152707
  H   -1.32091605249616      2.46484511704338     -0.77618234161574
  H   1.54320785209621      2.09534777307798     -1.85158450355124
  H   0.81023696946328      5.33314889338534      0.32878466116591
  H   5.22216798052364      2.45649663819655      0.94880574392796
