25
Coordinates from ORCA-job 19180optt
  Br  3.11355611956966     -1.25436220143099      2.21868694710848
  C   2.89950381759913     -0.32866371472642      0.60022120553710
  C   1.82626073105574      0.46145908677143      0.36644881762200
  S   0.50398598485339      0.41574162587019      1.52747077833888
  C   -0.74095599070780      1.39506044631121      0.78042399210244
  C   -1.10077531387393      2.52900150660474      1.37810612705554
  N   -1.97420772247715      3.46149410903472      0.83195601055086
  C   -1.57787413757146      4.13276338802816     -0.16878622908908
  N   -0.32518240218610      4.14117966641610     -0.75554125665242
  C   0.84807881821286      3.47447517255887     -0.27585104128406
  N   1.45312192464817      3.77651061738023      0.78751270747422
  C   1.35158653307189      2.43554877471375     -1.18918367828133
  C   1.82317006080717      1.20715315645147     -0.91605446284369
  N   2.48392235293440      0.62287015043252     -2.02211073076129
  C   3.44005741346368     -0.17377520411698     -1.79528463944032
  C   3.88522219653814     -0.59414122807408     -0.44446050656235
  N   4.97629508320853     -1.20787558495032     -0.22547384849242
  H   -1.15418922603924      1.09148935467851     -0.17361377241137
  H   -0.66630272317365      2.78884335292410      2.34074773840711
  H   -2.27584396036556      4.80720538464019     -0.65834187128913
  H   -0.31340669478097      4.40422540405382     -1.73005231397710
  H   0.99019814034810      4.54870991022077      1.26828550013491
  H   1.40989243990560      2.71797648038205     -2.23617343387021
  H   3.98615059109306     -0.58638370149732     -2.64305187977381
  H   5.49473596386634     -1.34550595267675     -1.09388015960295
