21
Coordinates from ORCA-job 19181optt
  Br  2.81265446733285     -2.44169329450998      0.57660954448316
  C   4.22388263772958     -1.79537445397907     -0.48644872644641
  C   4.60714398053954     -2.36009668615087     -1.65688460199911
  S   6.09385828462519     -1.61231714830438     -2.27406150019485
  C   5.26379937107459     -0.02471681054711     -2.23010401648316
  C   4.78001996776099      0.27129391712287     -3.60119097629045
  N   3.54879198503178      0.03530254529335     -3.76303665354135
  C   2.95281017682438     -0.44755499706007     -4.91312847264556
  N   3.09758239561934     -1.63347508479667     -5.33462178987384
  C   4.05196295037324     -2.48304312631722     -4.72666718473693
  N   5.18229004473058     -2.62663578560731     -5.26452775990357
  C   3.51582912559261     -3.29290423337968     -3.56144906036783
  N   3.78532146743777     -3.24648451497902     -2.32363615925022
  C   1.96101214786267      0.42119133092316     -5.52483714678406
  N   1.20644921558969      1.14470062270879     -5.99169718577966
  N   4.73746318574198      0.39902379691161     -1.15792439469942
  N   4.70902115854832     -0.54368513351791     -0.14527435584153
  H   5.49596506944604      0.37690640660588     -4.41672540331173
  H   5.74264342965439     -3.31097376090362     -4.75876453476497
  H   2.76766745107167     -4.02650743300285     -3.86196774840595
  H   4.33783148741275     -0.14995615650988      0.70633812683749
