23
Coordinates from ORCA-job 19184optt
  Br  0.75587507070200      0.06600318060369      0.27401526553020
  C   2.61401221155946      0.07876413268039      0.10438191967669
  C   3.31173625923224     -1.09804466094403      0.11666002767949
  S   2.73683904855005     -2.71414225826769      0.26496421086676
  C   4.36930039033829     -3.33191155214511      0.18200139727772
  C   5.27808427952237     -2.35102875736640      0.04309448341838
  N   6.64250902132503     -2.35356975004425     -0.06262041346316
  C   7.42104951501691     -3.49900388548377     -0.09507417369282
  N   8.67707828607660     -3.56214345993434     -0.15992819252357
  N   4.67250784783749     -1.08954501776874      0.00419912106167
  N   5.40913465150442      0.01247857156776     -0.12139902083040
  C   4.78891035952499      1.14028763538923     -0.14198540673721
  C   5.58949590603231      2.40334978985467     -0.28314724619721
  C   7.02238196967741      2.14764365789399     -0.37763204417220
  N   8.14288133202480      1.92478617876008     -0.45130789001713
  C   3.32109813300547      1.32041668224227     -0.03166062799368
  O   2.83492327030002      2.43947986189654     -0.05909590275756
  H   4.54810951368546     -4.38943923083324      0.25094195542417
  H   7.08290450716716     -1.44242027712608     -0.12264852916214
  H   6.83980218632965     -4.41837993117773     -0.06530889725185
  H   9.11851425194694     -2.64209261821860     -0.18294251826472
  H   5.37483908823152      3.05695429325375      0.56536111320541
  H   5.24401290040934      2.94655741516763     -1.16586863107684
