24
Coordinates from ORCA-job 19198optt
  Br  1.25754978090983     -0.71743808418472      1.30362686764656
  C   2.54674905467975      0.02717513526554      0.16734076035106
  C   3.40070721593644      1.02132705103851      0.49682614338310
  S   3.04750666882393      2.15654888106030      1.80190990914793
  C   1.38788899222075      2.53056611464182      1.24096127119340
  C   0.44350227172201      2.83174890820403      2.34885738627239
  O   0.81913595324461      3.03327668633902      3.47212215325120
  C   1.00762792218025      2.39667914089381     -0.03708397564825
  C   -0.37030531535927      2.12567442235786     -0.49185761412122
  N   -1.33464929705972      2.92263469219942     -0.28915184634565
  C   -0.63641695083697      0.78404262344506     -1.17027896514165
  N   0.06948640933994     -0.07210709206412     -1.76844637936284
  C   1.42852579322801     -0.13056837938794     -2.07398804491012
  C   2.49585098396507     -0.24206236625257     -1.26795757469674
  N   3.80501794569200     -0.38091623082322     -1.76694025619402
  N   4.72148297846588      0.55808845613498     -1.46863517880227
  C   4.48389383737983      1.28922791789570     -0.43522064498992
  H   -0.61822831382920      2.88105566617013      2.06760611217349
  H   1.75662993262486      2.21565542007961     -0.79801704295779
  H   -2.21550708599737      2.53052853351846     -0.63057227281811
  H   -1.70726825298328      0.55961744431095     -1.13078668132093
  H   1.60210066662629     -0.27805508643570     -3.13718415282207
  H   3.93921558605921     -0.79776588310714     -2.67437774154070
  H   5.20150322296711      2.06706602870018     -0.21075223174686
