23
Coordinates from ORCA-job 19196optt
  Br  2.19949435266151      2.44017510178105     -3.36309314202231
  C   2.53299366224907      1.51855777826161     -1.77336657048515
  C   3.33356981479108      1.89859794794732     -0.76163692513627
  S   3.57666927433272      3.60248847711799     -0.30730538958400
  C   2.05208638464968      3.58463189352071      0.63725095831920
  C   2.14166991710331      3.41048832585447      2.10236885612300
  O   3.16183170905400      3.43122459107229      2.73523003861358
  C   0.90661028531822      3.36902690757884     -0.05254204433308
  C   -0.02737778246074      2.32119386208296      0.32095429609265
  C   -0.51710847786194      1.53700444403247     -0.64903090168367
  C   -0.71529284360685      0.05660486666332     -0.39340570083173
  O   -1.77526550981950     -0.50470896551360     -0.41533305244717
  C   0.57499481028656     -0.58951585362662      0.03487917787070
  C   1.76688920670451     -0.22850967868018     -0.45282160210295
  O   1.84368598161330      0.35568508465893     -1.70284088027494
  C   3.04896669496288     -0.15680737376924      0.25692047687743
  N   3.74035310839165      0.90916087482566      0.13221391184198
  H   1.16307991869480      3.30509810486874      2.60837388787639
  H   0.88615056071104      3.65179022646874     -1.09987715474552
  H   0.01675191501332      1.93584950701817      1.33353011223163
  H   -0.53908567181127      1.86902641372759     -1.68265701826668
  H   0.53636031346851     -1.22638437401290      0.91108641684503
  H   3.37197237555412     -0.93767816187835      0.93710224922189
