22
Coordinates from ORCA-job 19195optt
  Br  1.42726638965108     -0.74376387737373      2.65444236605293
  C   2.68094199821801     -0.45898031001066      1.28722420602564
  C   2.89720281105320      0.74967980294854      0.72901584387531
  S   2.06737129812009      2.18848435660283      1.33820935109109
  C   1.28116105626911      2.76208009930879     -0.14297019059844
  C   1.88907780830864      3.01412662961220     -1.30271512778617
  O   3.19306717889492      2.85633827061563     -1.63092191767916
  C   4.03365734081915      1.88859307882605     -1.22668440817442
  C   3.94592765451355      0.94342733517492     -0.28030140246522
  C   5.07689676162454     -0.02475775549309     -0.24336350701097
  N   6.31283892701420      0.21027600610167     -0.34504249690592
  C   4.64550678778542     -1.45656131064710     -0.02862285744589
  O   5.23082684249680     -2.39297096869692     -0.48595656013625
  C   3.40403056557667     -1.66547817164684      0.83583286988431
  N   3.04634582616289     -2.82866751156847      1.16782804490421
  C   -0.11281453363921      3.03338673187619     -0.02242674341587
  C   -1.28131394878947      3.26120868463463      0.11974224415902
  H   1.33671434679193      3.43796316050364     -2.13085833478205
  H   4.91008397146369      1.90545257006676     -1.86226781117158
  H   6.49826814483049      1.21129429796190     -0.43314424322174
  H   3.68058659216763     -3.50775522975784      0.73507986950724
  H   -2.31964381933335      3.45962411096088      0.24090080529396
