22
Coordinates from ORCA-job 19191optt
  Br  3.49055596386574      2.12602168791360      1.50045841996245
  C   4.54196282032664      1.15405534427616      0.26714784452673
  C   5.62178874493621      1.70198309855614     -0.32674860409869
  S   6.49351733835905      0.66616603025991     -1.46172323832167
  C   6.27698993661279     -0.78143548666167     -0.49566300034652
  C   7.26966226703546     -1.25935581029050      0.30250095986491
  N   8.26184314691844     -0.40602902020059      0.69458691065576
  C   8.90419856775173      0.37178709902519     -0.05115075010965
  S   9.37424230093730      1.96530498647416      0.61482109831193
  O   10.75668778673395      2.20259314887126      0.33855396053934
  O   8.81053316579649      2.10865045021704      1.91114359433490
  N   8.57781882600251      2.95913969457429     -0.46446641017639
  C   7.32546812732776      3.58521178712768     -0.28725850006529
  C   6.09062890379712      3.07164806245714     -0.18633651728344
  N   4.96286410107737     -1.17218507352646     -0.25367436216950
  C   4.14809957461567     -0.24193927421882      0.07944309111956
  H   7.07757335154175     -2.13084983608889      0.91601335274815
  H   9.12765823307466      0.25231480821206     -1.10989758178705
  H   9.27295782962560      3.54142843877043     -0.91550753818012
  H   7.40296061574379      4.66524783871038     -0.23047941459803
  H   5.31437639036627      3.79942886908549      0.02035575772049
  H   3.12561200755362     -0.51618684354403      0.31888092735214
