20
Coordinates from ORCA-job 19202optt
  Br  4.07449626675201      2.72478884925907      1.27390038418791
  C   4.91213113864983      1.48726136425715      0.13038359324725
  C   5.87755810812950      1.87169543998039     -0.71271249007122
  S   6.56703568337058      0.62731827010947     -1.78777654283162
  C   6.63944451785569     -0.53165494033706     -0.46671284661885
  C   7.78225981772290     -0.93957778972138      0.08728317825901
  O   9.03759201260639     -0.46751412994554     -0.14508761394764
  C   9.38417188467028      0.51373764474448     -1.01607459669975
  N   9.46901793741703      1.75435316856728     -0.80671595859551
  S   8.73497553904686      2.55141001726609      0.44817042771109
  O   8.01799842287895      1.68395842038706      1.32882674161298
  O   9.66772521799679      3.50237865842882      0.95530039034889
  C   7.51984649546301      3.51961042549788     -0.52424686138425
  N   6.37063004258185      3.16051574564015     -0.87187754319035
  N   5.42384000716890     -0.88448778214450      0.13662518872529
  C   4.60770829535665      0.07026456553063      0.36521682745934
  H   7.78304871268734     -1.67952204837837      0.87464015894719
  H   9.75504513044815      0.12205620589533     -1.96190630305854
  H   7.87844775029332      4.52726257603174     -0.72393835405014
  H   3.67102701890384     -0.16385466106872      0.86170221994892
