20
Coordinates from ORCA-job 19205optt
  Br  1.14712712451985      0.43478281708141     -0.24736412450922
  C   2.99791588588897      0.21847932145439     -0.13058956323154
  C   3.60606456034171     -0.99128432022400     -0.20518064689360
  S   2.61560808049833     -2.42586674358851     -0.35652668135769
  C   3.81680514915177     -3.66158363217502      0.02894191012820
  C   3.16154125885659     -4.98646190948349      0.39963240335918
  O   3.79254268539994     -5.95145902800624      0.69238262603557
  N   5.07192663308943     -3.56561834581627      0.03381000466700
  C   5.72564228390079     -2.38680532831954     -0.37614655610914
  N   6.86277853018394     -2.43648584442141     -0.92420887176895
  C   5.04115321128821     -1.09439735069392     -0.15487445521276
  C   5.73780285020535      0.05042682210326      0.07533935814632
  O   5.12796736677787      1.23975867465998      0.20253346651705
  C   3.76666825803258      1.43857639462741      0.07117448590860
  O   3.34690510725913      2.54878614628569      0.15447313370667
  C   7.14545958990045      0.16070134883288      0.24116712182342
  C   8.31645992321425      0.33556192318953      0.41460082521338
  H   2.05607294950914     -4.98159344500615      0.37994472141732
  H   7.18684078928598     -3.40427500050315     -0.94701531045026
  H   9.36371776269561      0.46875750000318      0.55190615261044
