22
Coordinates from ORCA-job 19200optt
  Br  0.93008249642149     -2.48193233056482     -0.26321667908030
  C   2.62318540792154     -1.76941702926068      0.13359268744688
  C   3.11973078060379     -1.78200864769117      1.38920532478169
  S   4.64861819714405     -1.10447824745651      1.83486485790730
  C   5.45553906996025     -1.03853237075220      0.32296070156537
  C   4.88289778259340     -1.36392624563098     -0.84082857466334
  O   5.65079285821871     -1.85052729152036     -1.87533719103340
  C   5.55361619939191     -3.25251699247939     -1.93943977466448
  N   5.63738346020435     -3.87370553382320     -3.01665700666677
  C   5.39378610142410     -3.88716891049187     -0.59502764163552
  C   4.23268100053635     -4.32402362138998     -0.12234228796841
  S   4.11235004596295     -4.96468076208240      1.51957474889222
  C   2.56650688174315     -4.33135948574275      2.22842042411970
  N   1.68090337798950     -5.10459574019681      2.66387785045835
  S   2.32629338459154     -2.61311178206405      2.72864697245303
  C   3.43025947699435     -1.46761517407171     -1.07089946501267
  O   2.97598642458029     -1.50215593253272     -2.18962042656405
  H   6.53175531620264     -0.93687341756968      0.39414352451575
  H   5.71409033529227     -3.22920618897793     -3.80453992636555
  H   6.26177920272565     -3.84159416091153      0.05581539700842
  H   3.33411311321295     -4.34171758199486     -0.73126880448762
  H   1.88964908628471     -6.08185255279434      2.46007528899341
