21
Coordinates from ORCA-job 19203optt
  Br  3.84898188514060      1.69263100657548     -4.52033905268380
  C   5.02183234607071      0.55200325570493     -3.53774751120014
  C   4.53084228887163      0.02694748140956     -2.38473854994828
  S   5.46309385853462     -0.93463502584401     -1.28102749737369
  C   7.07009536319076     -0.65839379085819     -1.93368780131285
  C   7.69314728199145     -1.63731407496618     -2.57687481787980
  O   8.84626725229639     -1.46654268308122     -3.27406382367756
  C   8.96933562523248     -0.44444659153056     -4.18346652380831
  O   10.03586583891759     -0.10184971940187     -4.55350775327973
  C   7.66109955243645      0.18727925951210     -4.74498161319151
  O   7.64782650742932      1.35057767719334     -5.00613927535474
  N   6.64196303796633     -0.72981363549599     -4.98123284626987
  C   5.52829804604080     -0.52832678638082     -4.43045663726208
  O   4.55449735121969     -1.46477055948274     -4.58257736235599
  C   3.29666899016585     -1.42584157547087     -3.90669798715364
  C   3.14512293430455     -0.53147928648564     -2.61270219761332
  O   2.12361971529768     -0.46704321824962     -2.02067875338702
  H   7.45026890698980      0.35787064379010     -1.90454504902203
  H   7.32192787956555     -2.65411626299240     -2.61279928879405
  H   3.09549376322295     -2.44868568238769     -3.59041155885146
  H   2.52675157511471     -1.10205043155771     -4.60632409958008
