23
Coordinates from ORCA-job 19206optt
  Br  1.05619245249550     -0.72071534199149      0.71550092827537
  C   2.71010961849803     -1.27375775974114     -0.10119464814040
  C   2.78571446678635     -1.62330544504070     -1.48479145971967
  S   3.56542113589545     -0.04297574563259     -1.25405409314508
  C   5.18046196876649     -0.45260259678794     -0.68048258639478
  C   5.30934068918828     -1.48910370952073      0.18393242743371
  S   3.87279708716428     -1.83323583771662      1.15887376331713
  C   6.39887364808334     -2.43968052457256      0.13456507424187
  C   6.37936092093777     -3.64043706511972      0.74862113365618
  C   6.77023265874783     -4.87450160304872     -0.01681363216752
  N   7.88191312524483     -5.31017267906657     -0.41641941958378
  C   5.39645853481735     -5.27735698788348     -0.44252332974659
  C   4.88237874391624     -4.64640264986689     -1.52652685416102
  C   3.64183420522443     -3.94183220202285     -1.42754253744567
  C   3.53651372706642     -2.71606015461426     -2.00735566465516
  H   5.99448088312628     -0.12322678875286     -1.31378779501176
  H   7.08698080884276     -2.28840350027817     -0.69198826718271
  H   5.67225392215813     -3.80855525032300      1.55363205051372
  H   8.64334731106999     -4.75124439197505     -0.02871935473869
  H   4.71641459336298     -5.54148458080439      0.36267378021532
  H   5.57406678061979     -4.30534460062577     -2.29323914712011
  H   2.98556994743709     -4.19707007435438     -0.60177598419907
  H   4.20028277055005     -2.48353051025991     -2.83658438424124
