23
Coordinates from ORCA-job 19201optt
  Br  1.32018216475623     -0.43924338688715     -1.52731011558011
  C   2.97071580229873     -0.22734537627581     -0.64471163013706
  C   3.79443638953704     -1.29587197084542     -0.43097591942471
  S   3.20972773492584     -2.84622678759035     -1.01577600976192
  C   4.44244215621923     -3.93035160924679     -0.39934499175917
  C   4.09884631203294     -5.39646323657732     -0.59485573510208
  O   2.94758157020704     -5.59123707483048     -1.38178111836345
  C   1.76674642763074     -5.80578015184635     -0.73626926185365
  N   0.66997038707569     -5.94999491755669     -1.31386134664168
  N   5.54081865626991     -3.66755931350775      0.16662793823459
  C   6.00278827174859     -2.35923187746763      0.36869174674646
  N   7.20947685625723     -2.15004904290388      0.69275987705202
  C   5.07691009234341     -1.19777299728302      0.21956840171895
  C   5.51844582183525     -0.01817779475200      0.71243420690482
  S   4.73260359789191      1.48009482112814      0.63717361005762
  C   3.23020901579194      1.15760312969781     -0.26353021406251
  O   2.51183942104400      2.09422168163215     -0.49041944948458
  H   3.99443692080757     -5.85248728641743      0.39359091233859
  H   4.93639913039757     -5.87287565400287     -1.10180086600756
  H   1.85108490360367     -5.85235387463098      0.35012718177819
  H   0.76756854282419     -5.87463945279188     -2.32685055263404
  H   7.69427811687675     -3.04086361697789      0.78693677034472
  H   6.48649170762442      0.00760578993366      1.19857656563654
