21
Coordinates from ORCA-job 19212optt
  Br  1.94985543050604      1.35953240066570     -1.49567311518582
  C   3.43688723537314      0.96494840180200     -0.42431256689379
  C   3.46391097225171      1.08195352663668      0.91089176479562
  S   5.03537869588625      0.77896674565751      1.70707125452341
  C   5.86914829114236      1.73546771988053      0.46842383845287
  C   6.36859445801922      2.93634792306980      0.73474482540026
  S   6.72094346819326      4.15414697217801     -0.48721402561698
  C   5.22972101876130      5.18482719656485     -0.43983219718383
  N   5.27821903766262      6.35209602245425     -0.90964683727129
  C   3.89533690273813      4.66407887758433     -0.02860457755552
  C   3.60268677888420      3.94490740812245      1.04786719040489
  C   2.21519232979049      3.48144105445230      1.34263969096476
  O   1.23241448282728      4.15124895128257      1.32497494310403
  S   2.09435765602808      1.71496040370938      1.81387470242837
  C   5.75208879054792      1.14457329308365     -0.89692324787204
  O   6.62111635359789      1.03161073799109     -1.68913059422243
  O   4.50404848391930      0.61502691541656     -1.17870297261815
  H   6.45238379589096      3.24964703012195      1.76924332788374
  H   6.21874744886492      6.64978564585058     -1.16761067309471
  H   3.09481274746873      4.97879103188685     -0.69132122184604
  H   4.33915562164614      3.61364174158894      1.76424049140265
