22
Coordinates from ORCA-job 19211optt
  Br  0.48650796514533      0.16643046560623     -0.03901329921258
  C   2.32624391458178      0.10329931911234      0.39855468506024
  C   3.25737574894122      0.34524993704688     -0.52037578397061
  S   4.97935685474694      0.19380859637864     -0.14677491813742
  C   4.96195544395229     -1.33135892757611      0.71408808885218
  C   3.99130537758946     -1.66604474635557      1.56164742078211
  S   2.70683616365080     -0.51777860587037      1.99454928876059
  S   3.82763816226910     -3.33379841931638      2.15103438499149
  C   2.86448889550786     -3.87947237327001      0.70389251789565
  N   1.61926430127290     -4.00945036951356      0.67765643118760
  C   3.70044572832490     -4.21819793958085     -0.53085957155318
  O   4.46691318105375     -5.14467248625795     -0.46931102241153
  C   3.61688895832797     -3.34575596433839     -1.71913199667049
  C   2.91326372869212     -2.21525253407939     -1.68997805244474
  S   2.91941885252135     -0.99600185164464     -2.94078842795984
  C   2.94927475965745      0.52407817628824     -1.96684578394821
  N   2.80086024081172      1.66290159327978     -2.47285647569166
  H   5.74098039490956     -2.03687660735698      0.44923462386884
  H   1.18954231054396     -3.80268967741900      1.58125541697142
  H   4.26799197838819     -3.61743139673096     -2.54159792347525
  H   2.27471845909500     -2.00870736091255     -0.84183414330823
  H   2.59772858001633      1.63572117251062     -3.47254545958638
