21
Coordinates from ORCA-job 19216optt
  Br  1.51724181137157     -0.38030707128416      2.06519944707118
  C   3.23609070091189     -0.67325433425405      1.32113192423800
  C   3.54232726567758     -1.77436456719857      0.62175709441393
  S   5.14776727229186     -1.86175561327573     -0.15096571805900
  C   5.94711148967806     -1.62689926709167      1.42832426002423
  C   6.29208959305374     -2.72047503478000      2.10381307828682
  S   6.36610046582678     -2.85991654734211      3.87068505368556
  C   4.71154001974022     -3.55617905800793      4.05659414791947
  O   4.31667152901987     -3.93090379152851      5.11769338780352
  N   4.01543407180955     -3.58784176484867      2.83254391885331
  C   2.76038643350800     -3.46410967620274      2.84861910598250
  O   2.05563734144670     -3.39675349447642      1.71499887793617
  C   2.69108018880562     -2.99213849563813      0.52874111230230
  N   2.50778188445920     -3.60039435002517     -0.54368601848195
  C   5.85838355491385     -0.26228324561332      1.98687812356096
  N   6.74193982738932      0.37328781911447      2.61790167895008
  S   4.33911790625598      0.63133213492097      1.68230371075185
  H   6.32207820927127     -3.66409883165025      1.57601294864332
  H   2.13312709779877     -3.40151241311574      3.73691156357066
  H   1.92565106280925     -4.42727944453926     -0.41951076413829
  H   7.59744227396085     -0.17515295316298      2.71005306668537
