22
Coordinates from ORCA-job 19222optt
  Br  2.00898777247617      1.26243930527327     -1.98069960607266
  C   3.33987540188776      1.12723836596177     -0.66651524299410
  C   3.44679361056773      1.99560402022149      0.35169688315208
  S   4.90213642151126      2.01657584857088      1.34429944995223
  C   5.93302913728535      1.00080769586153      0.34900591125097
  N   5.52716546265231      0.12330359719410     -0.46476805869681
  C   4.14995979114864     -0.10780687964562     -0.56612323484354
  N   3.71373018413661     -1.29006109068188     -0.43193810894602
  C   2.34116142079379     -1.64231247753272     -0.41970518591454
  N   1.91145710352228     -2.64564117855109     -1.06049756006211
  C   1.37015282039699     -0.79317079358102      0.31595149757848
  C   1.71353212972729      0.04707377532501      1.27436116565364
  O   0.85237002403857      1.05811361465536      1.67219426001193
  C   1.25654693931167      2.33460858806143      1.47287575691898
  C   2.36058894940872      2.83273193921139      0.88503013147170
  C   0.28916353309155      3.26483226702191      2.00802966536232
  N   -0.46288684093321      4.02235017779056      2.42459141564267
  H   6.99636225205832      1.18039223848966      0.47912971554116
  H   2.68403370805202     -3.10528284200324     -1.54328793121172
  H   0.37148417217088     -0.76026913437800     -0.09977711498182
  H   2.67235675154684      0.04876174613518      1.77826467375227
  H   2.47599925514842      3.90871121660005      0.91288151743487
