21
Coordinates from ORCA-job 19223optt
  Br  5.91932129183667     -2.36589492459447      0.99704972885381
  C   4.33546073678447     -1.38789142771785      1.33344213779645
  C   3.38974300457084     -1.82044772330998      2.17771831316203
  S   2.00184649750175     -0.72565706753982      2.44991308885830
  C   3.13698369560076      0.67407542603510      2.64818732062913
  N   3.78169012170295      0.95452441545092      1.42751366298495
  C   4.32920209102895     -0.01136933127287      0.80775871271193
  N   3.42817870985972      1.33909805141082      3.67082800053005
  C   3.13604975809731      1.13523469932160      5.03965001479401
  N   3.39085447227600      2.09001443655529      5.82480715985252
  N   2.65354337164929     -0.13818021192027      5.43865958974331
  C   3.40031855256440     -1.03682919470269      6.18594341815280
  C   3.64028687766645     -2.28476354127927      5.69540158976390
  N   3.31470197108590     -2.38564494864946      4.37806954126582
  C   3.63480942259042     -2.83778785742847      3.25337359497178
  H   4.86007032282314      0.19558126431633     -0.11727376822467
  H   3.11364801434467      1.84224117950124      6.77328571853581
  H   2.25816926000271     -0.64202504530207      4.65264507394779
  H   3.78917748551412     -0.70690492244703      7.14130426529396
  H   4.16417470405596     -3.04497627964026      6.26556887751881
  H   4.24576963844348     -3.71439699678679      3.02515395885746
