19
Coordinates from ORCA-job 19221optt
  Br  1.55522827223182      3.17790457452067     -0.37323166539252
  C   2.26474866950956      1.60433943574522      0.37883485300613
  C   1.88527193152114      1.10232704364081      1.57332906055171
  S   2.94544749834102     -0.09949123790612      2.32135562411500
  C   4.36829533564151      0.08214061619618      1.28844427317208
  N   4.35575921970252      0.47062019913197      0.08104439162629
  C   3.07654010281369      0.69556299900574     -0.42411229884808
  N   2.63682119094626     -0.11121466896143     -1.33171217675805
  C   1.31505574880163     -0.52397271741851     -1.21159519842468
  C   0.26239227713021      0.09049188940053     -0.61660515405549
  C   -0.44475290585457     -0.70062045793198      0.36455757887028
  N   -0.71812208724667     -0.28346058170558      1.54266766810772
  C   -0.37842309240579      0.91645838530048      2.12557519468077
  N   0.76244865622736      1.48897063850619      2.26420783890121
  H   5.30068983836262     -0.18457439256673      1.77549701006318
  H   1.23570203905391     -1.59286515154773     -1.40401443545186
  H   0.17193002599034      1.15550776200955     -0.51903490239977
  H   -0.64043752415544     -1.75283249505248      0.15654952882142
  H   -1.20259519661112      1.37970815963321      2.66324280941465
