23
Coordinates from ORCA-job 19220optt
  Br  4.43583770494122     -2.68595942266216     -1.71302194469801
  C   3.67328885285730     -1.10200518850855     -2.37755714830393
  C   3.09130165985523     -1.07735270543056     -3.71693529767330
  S   1.70519416382198      0.06688817801174     -3.72814793328231
  C   2.67836566342439      1.47963643920020     -3.21075188539475
  N   3.52420165391780      1.32069490983451     -2.26021502273889
  C   3.82126255164145      0.08329687792357     -1.73436740532628
  N   2.69048474256241      2.65863806430389     -3.94038268192581
  C   2.41413062748881      2.71978212293947     -5.20019671752664
  C   1.66164219813307      1.78408209455957     -5.99419798295575
  C   2.43433440815264      1.02270782850143     -6.84720451951903
  C   3.53911300440979      1.61252694307836     -7.55003059151927
  C   3.86649681629524      2.91472724370499     -7.40170646268272
  S   3.32280769378594      3.93842714856426     -6.13144263830907
  C   2.29305728383829     -0.43068356686339     -6.57431365183103
  C   3.38949348231545     -0.91282486613751     -5.96872133851058
  N   3.55746656727414     -1.62860376006352     -4.76554821549609
  H   4.33617909876653      0.10282515145782     -0.78240310570755
  H   0.75867012253473      1.37499199407481     -5.57745106325070
  H   4.04251263610264      1.02336667761489     -8.30595481920820
  H   4.55077668035860      3.40901068324696     -8.07909627708502
  H   1.30979845644486     -0.81399494528744     -6.33967533430948
  H   4.35158393107742     -0.47817790206337     -6.23767796274553
