19
Coordinates from ORCA-job 19224optt
  Br  5.17368030784339      1.60013578848506      2.90004565215501
  C   5.41868660758119      1.19421385923148      1.08308692217513
  C   6.23667597889122      1.92839068379591      0.30724041070780
  S   6.39318947252782      1.51815147515649     -1.41947093401127
  C   6.29329949300590     -0.23802748401742     -1.00056635136348
  N   5.05766880553339     -0.60704656676837     -0.48457642822072
  C   4.68206332070677      0.05387948744546      0.54002215604361
  N   7.26040190387133     -1.03364625305193     -1.04603770663695
  C   8.59444823720377     -0.60616065199092     -1.14339011157483
  O   9.37352690152800     -0.92819578091137     -1.98119525192437
  N   8.88544801038831      0.19188340164637      0.00800664161029
  C   9.09299464863226      1.39430123668632     -0.23515867326967
  O   9.17244846859952      2.32121833709573      0.79160523491905
  C   8.14020501146544      3.17896939070329      0.96554304686041
  N   6.90591931102164      3.05347510025801      0.75693864766406
  C   8.61912727188876      4.42663689926565      1.53804126121273
  N   9.00689271691256      5.40810147990175      1.98028133794759
  H   3.76487641207841     -0.24187334374521      1.04101633709107
  H   9.23544712032023      1.84759294081368     -1.21443219138547
