23
Coordinates from ORCA-job 19226optt
  Br  4.93220588817628     -1.96987867217150      2.94754957887555
  C   5.36035691536122     -0.84328631477376      1.51505616272745
  C   6.43792906273171     -0.04938040080579      1.56190955443715
  S   6.79371517606300      1.01165006702732      0.17277661151334
  C   6.26413869996727     -0.13755532248254     -1.05678192126781
  N   5.34079976135692     -0.98343002001424     -0.92522344689116
  C   4.56169163334764     -1.01354805159433      0.27647856790502
  O   3.39610867107171     -1.26966657523468      0.23619573880632
  C   7.18413974849731     -0.19238642170279     -2.26404492105179
  O   7.00515316124571      0.47099022494160     -3.24242800836593
  C   8.39276192464874     -1.13466820637783     -2.11998544421278
  N   9.14506918151654     -0.93127798290968     -0.89511334391726
  C   8.68997781803688     -1.42365478331420      0.32032606599115
  N   7.90568970293945     -2.37865598536586      0.55828215291835
  N   9.25256212669800     -0.71463709399455      1.42665309904930
  C   8.55730647582979     -0.20196950743947      2.48913333086205
  N   7.31896723214842      0.08219947383585      2.60924640676185
  H   9.03618218539588     -0.95784821517292     -2.97996048760745
  H   8.04059526273625     -2.16648551118743     -2.17198035186498
  H   9.53723493259957     -0.00411619926074     -0.81292850096625
  H   7.48243926001312     -2.77807880652661     -0.27525322878636
  H   10.25192812022136     -0.78841426519941      1.54250433981827
  H   9.19804705939708      0.01909856972356      3.33858804526598
