21
Coordinates from ORCA-job 19236optt
  Br  1.30567163867287     -0.05896541396446     -0.87586053100635
  C   3.07060242231544     -0.07864536174179     -0.25945074660322
  C   3.71998750236914      1.10206023759359     -0.14254733659188
  S   3.15538087716429      2.72621981113519     -0.31991702557227
  C   4.78607791571625      3.24157249855078      0.04473569222570
  N   5.68648132686756      2.35396740175466      0.24355961770491
  C   5.13236316702482      1.08950189860040      0.12065990686174
  N   5.83073850486205      0.00215753514970      0.15370809361350
  C   5.19027759112541     -1.17658249328015      0.01351789532161
  C   5.91398631268420     -2.35253531871928     -0.07422668973315
  C   5.23821448552180     -3.58173265917639     -0.28097470901776
  C   3.89262892508767     -3.65853561219360     -0.21122260450625
  C   3.10472957606871     -2.50747137237871      0.15575001162129
  N   1.94246873161309     -2.46343332053965      0.65851294038758
  N   3.77897396943872     -1.24328213512551     -0.06568136766660
  C   7.33390034831101     -2.31702319781378      0.01162798442449
  N   8.48055581003410     -2.35708912358787      0.06838858707978
  H   4.99397401965195      4.30356725883938      0.09131641939797
  H   5.83032616828679     -4.46822036707248     -0.46597299061745
  H   3.36999840398789     -4.59911404828381     -0.31071959725135
  H   1.55366230319622     -3.39941621774620      0.73479644992769
