26
Coordinates from ORCA-job 19230optt
  Br  1.19513662245175      0.17374276841401     -0.14195566809513
  C   3.07921156293123      0.13817882030638     -0.01174682188881
  C   3.70430017614550     -1.05665690107157      0.11617102713652
  S   3.05779394019474     -2.66389538644787      0.21959893468557
  C   4.70212141814641     -3.23462434629907      0.36125318209280
  N   5.64908984512922     -2.37688691814840      0.33080631174966
  C   5.13310278559998     -1.09170479001692      0.18667707576600
  C   5.86383705370053      0.04854465105842      0.10364348157116
  C   5.22459936275478      1.32585219475801     -0.04840073688454
  O   5.80167483393108      2.38799181188790     -0.15622647917364
  N   3.78364679873986      1.29649397157401     -0.07344686142611
  C   3.12689766045015      2.60506194139778     -0.11122435155559
  C   2.68239959663431      3.05017137991334      1.26976793492496
  O   3.81986474010049      3.13367969341175      2.08540334319822
  C   3.55807377258083      3.57332626252289      3.38783622859852
  C   4.87975588164476      3.66882569374494      4.11739680837243
  O   4.96631726273335      4.00849547093287      5.26158872034059
  H   4.87585685899038     -4.29793846298808      0.46915756728033
  H   6.94240848776582      0.03777439686010      0.14373294176164
  H   2.27606591272694      2.56755302158992     -0.78724854419377
  H   3.86788215431165      3.30063738686695     -0.49504872300202
  H   1.95692627843887      2.34634109593072      1.69754853092932
  H   2.19260930992151      4.02884892295007      1.18166741126917
  H   2.90133792310982      2.88171734680972      3.93179523654833
  H   3.08267451320632      4.56314408635555      3.39473049370477
  H   5.76241524765964      3.40232588768656      3.50652295628959
