22
Coordinates from ORCA-job 19245optt
  Br  1.34781144465623      0.33256303105155      0.65661967425556
  C   3.16972615092399     -0.05488625719680      0.41291684050945
  C   3.62572721197197     -1.22451536447345     -0.04933347521271
  S   2.61615060550661     -2.51048394621487     -0.67846017116803
  C   3.57833743870430     -3.93252200713638     -0.17328188194227
  N   3.08361244703819     -5.09523182089287     -0.10902911787083
  C   4.99728430207269     -3.72121046858529      0.05413425986013
  C   5.64740215588406     -2.53521880331325     -0.00441213570050
  N   5.03548204410058     -1.32603579810772     -0.18678158686968
  C   5.67905049852399     -0.14900429670672     -0.64572256629510
  C   5.18626908383596      1.01422242284101     -0.22917207359990
  N   4.05532880292126      1.00509255011181      0.59528426859818
  C   7.09803455862629     -2.66773495701993      0.25362455351981
  N   7.98207288626847     -1.80485158519005      0.49981515710629
  C   7.47204519176007     -4.15333954394733      0.34652731414304
  O   8.58211902693214     -4.57044027168809      0.43741140799564
  S   6.00115039993206     -5.15171378725311      0.33801547390319
  H   2.08427684637871     -5.11912575917596     -0.30459838415205
  H   6.47772842965432     -0.23900769996388     -1.36764149970493
  H   5.57532992423900      1.96993119630019     -0.54597864139345
  H   3.65417689475389      1.88638469919018      0.86698115322829
  H   7.61288365531518     -0.85387153262903      0.48008143078988
