22
Coordinates from ORCA-job 19248optt
  Br  3.04040655231410     -0.86415973301908     -3.14219873926270
  C   2.65954167508331     -0.31480518872734     -1.38800469137300
  C   1.58459835133206      0.44232644158086     -1.04364246922520
  S   0.36491105149793      0.93332161551061     -2.21773705282761
  C   0.68441575696385      2.70365164629525     -2.06395847706377
  N   0.41479211339301      3.39681337505852     -1.05118891991961
  C   -0.19896686701120      2.85108359053173      0.06437066745513
  N   -1.21088671881724      3.39611892207842      0.61384193101850
  C   -1.51597453610943      2.56778567910440      1.74390114771250
  O   -2.44879108430076      2.72693432380430      2.46776890041221
  C   -0.48748613138069      1.46392781539782      1.82860233463955
  C   0.32083959366413      1.61851157784651      0.78579174723921
  C   1.45834562076412      0.79419350889662      0.35973652186990
  C   2.37175608547426      0.38124928839923      1.26676509066524
  C   3.50673546241546     -0.44657868514922      0.89692155335919
  N   4.43918665813717     -0.91621365714478      1.62421532849198
  N   3.55103884955950     -0.74825263323325     -0.46926183207748
  H   1.16511953312961      3.17737172264106     -2.91621871762377
  H   -0.49998507557200      0.68633074387527      2.57612097367477
  H   2.28870729690273      0.67868144826474      2.30350882026110
  H   4.32243504651845     -0.64179273062150      2.59425876823095
  H   4.33226076604164     -1.32049907139021     -0.75959288565708
