19
Coordinates from ORCA-job 19247optt
  Br  2.66062724803127     -1.08709506285460     -2.34219489193527
  C   2.79927905617974     -0.20363101097464     -0.68929101698242
  C   2.48666665223510      1.09622322503261     -0.46053033027517
  S   2.47653669495782      2.19522550011838     -1.81379322533428
  C   1.26610349809287      3.44151328350635     -1.64723985735045
  N   0.33885055196020      3.73505211152617     -0.84674363241991
  C   -0.03500757455276      3.11662295295418      0.31675681926356
  C   0.53110941643596      2.47683876403681      1.41490930060671
  N   -0.44092520752140      2.34535939673254      2.36563192927894
  N   -1.54831966695039      2.82406726348173      1.92432842849404
  N   -1.31701659134971      3.31238001582603      0.71710315047821
  N   1.78604194118526      2.02281104271467      1.75028189715311
  C   2.57598779480018      1.42185527803755      0.97310587246088
  N   3.71328054347007      0.83833085081756      1.62212927316980
  N   4.04196589581573     -0.31365634390622      1.32878284929847
  N   3.35346958661999     -0.93634935554651      0.31247358665835
  H   1.40129984020501      4.09742346558444     -2.50818143084097
  H   -2.03944094403005      3.78580699773076      0.19710677650205
  H   3.67649126441510     -1.87477837481785      0.13536450177435
