20
Coordinates from ORCA-job 19241optt
  Br  0.76996271853117     -1.27713544339397      0.10108824279609
  C   2.55125545178924     -0.72504752955918     -0.01005025511112
  C   2.93304352615457      0.54320475823782      0.24448194631762
  S   1.74555437277253      1.74154181205897      0.69018332263316
  C   2.69237355510537      3.18946250932056      0.60476186896635
  N   3.91773179185152      3.33419949581051      0.29473955134055
  C   4.71896581705786      2.23988079918165      0.05639731943074
  C   4.32425111168400      0.93555877811123      0.12682150407016
  C   5.29351640267288     -0.15496218764832     -0.00977382569574
  O   4.83097169400791     -1.34017185264236     -0.47609402082897
  C   3.50884156856320     -1.72345496438869     -0.48978849437360
  O   3.24268508202442     -2.81241129260822     -0.88294237069190
  N   6.52624238899653     -0.16469888849534      0.30267091992009
  C   7.20447874526027      0.90918081767637      0.83348531581346
  N   7.09207162273377      2.14948220122701      0.57125028025127
  C   6.12069836608502      2.57147467728282     -0.33942720063147
  N   6.31122355818595      3.24241419863727     -1.38522309337677
  H   2.10658767463243      4.07124823603512      0.85312535045424
  H   7.97970763960333      0.61415384434513      1.53494365233412
  H   7.30783691228799      3.41908003081162     -1.52065001361827
