23
Coordinates from ORCA-job 19257optt
  Br  1.64858945036019     -0.16416996911787      2.44018624295794
  C   3.08703217652650     -0.03647760989179      1.22565642549280
  C   3.52307573696632      1.16875953133394      0.81027974710179
  S   5.06571636764764      1.34573123853644      0.00690783287553
  C   5.82221522421453     -0.26711038487942      0.25964559757751
  N   7.07503263986601     -0.42933640410238      0.26924493386070
  C   4.87601365918657     -1.37312937204318      0.21924021477362
  C   3.58972234968085     -1.26622868544486      0.60224188561497
  N   2.71255285492849     -2.30038426866474      0.23912619805389
  C   1.60117081751611     -2.05927797570743     -0.34109758392609
  N   0.97104898327211     -0.83842308008125     -0.47058105340882
  C   1.48524290330090      0.24849118324301     -0.80995154901923
  O   0.83903133690085      1.39993926587105     -0.47151855540128
  C   1.51992477486609      2.43737180486282      0.11618906985803
  C   2.70102936890545      2.38321765948407      0.75839663469051
  C   0.77514288937072      3.65497380931297      0.04005407629993
  C   0.15068143638895      4.67512671437267     -0.00947020280508
  H   7.59292384001622      0.44686922675069      0.23421789747013
  H   5.22758613505409     -2.30034066839405     -0.21457002454471
  H   1.00250562369033     -2.90958891048203     -0.65272153387464
  H   2.40243300358780      0.38898382944182     -1.38625292527007
  H   3.08860046354150      3.32047913516457      1.13452896927745
  H   -0.40927203578824      5.57952393043492     -0.04975229765491
