28
Coordinates from ORCA-job 19256optt
  Br  1.63733336694806     -1.31080019240546     -1.46538613675127
  C   3.33505353393141     -0.95545185953578     -0.70019567191997
  C   3.48805970503336     -1.11838686540380      0.64024566399116
  S   4.96348006665749     -0.71097784578022      1.43515915235600
  C   6.12380880309787     -0.46063920900862      0.06285571545771
  N   7.18817959386041      0.19717911016538      0.17958190441024
  C   5.73463468803703     -1.23634338796158     -1.11031852083586
  C   4.46585854243009     -1.13649273694309     -1.57433523528409
  C   6.49353013900849     -2.53882627419538     -1.25675807813448
  N   7.74175713520997     -2.72845660070717     -1.34166830553256
  N   5.60588500256492     -3.57390564064426     -1.00200525830675
  C   5.97245853369171     -4.72129973582349     -0.18444344529935
  C   4.73043207938880     -5.28782551183722      0.51434635668903
  C   4.00150825977470     -4.37013393605961      1.49496083913052
  O   3.24882763986485     -3.39439474337675      0.74706342706023
  C   2.83606391602725     -2.25829804262992      1.38395077953069
  N   2.18727801107887     -2.28865414421367      2.45379665165686
  H   7.30303227794812      0.62363048059810      1.09808243066208
  H   4.21781048772398     -1.62348561441169     -2.51170144176160
  H   8.23268152883247     -1.84589291854338     -1.45542338753395
  H   4.66591031657501     -3.27356016128504     -0.81004500100637
  H   6.72361266353505     -4.40865513005286      0.55010237714211
  H   6.43372755320138     -5.50061960311998     -0.79346221492891
  H   4.01032139752718     -5.62775797701179     -0.23480740571354
  H   5.03960264528233     -6.17303234162813      1.07379948254828
  H   3.31554153369120     -4.94058311485095      2.12140483513086
  H   4.70595819981773     -3.83674566383454      2.14086946724128
  H   1.98265237926010     -1.34959033949902      2.78633102000162
