24
Coordinates from ORCA-job 19259optt
  Br  0.99006477020496      0.12007044376404     -0.07259035379368
  C   2.88373591682514      0.03749233456753      0.01243082056693
  C   3.51144461727790     -1.17866650073554      0.04582082289832
  S   2.58908266801582     -2.64765966779826      0.03773296870820
  C   3.81680198432185     -3.84301685434353      0.09718451244101
  N   5.09156195774005     -3.68777698097987      0.13775614868714
  C   5.63093438957671     -2.43886033500514      0.13727665583762
  C   4.96236524498438     -1.24351538382768      0.09285727356505
  C   5.64049336085107      0.02041724159589      0.09407160538562
  C   6.93997536745733      0.42374755030605      0.12165349377670
  C   6.96444896614479      1.88073396607424      0.12951600324725
  C   8.21422245776516      2.69345811390751      0.12516233695809
  C   9.21696881028677      2.34777371273815      1.20091540536779
  O   9.11120812880612      1.44350080358740      1.97873658975103
  C   5.69437248507209      2.37022492280845      0.10826389662282
  C   4.80793271980280      1.23685786139777      0.07902069050786
  N   3.51341090931206      1.23185489837200      0.03585205178720
  H   3.41122297711860     -4.85084175064656      0.09764308219482
  H   6.71363528738893     -2.41806464558686      0.17831151858954
  H   7.82466129840081     -0.19402048483522      0.15820064143227
  H   7.99061855733780      3.76054344270354      0.20938507257949
  H   8.75048374376726      2.58253034244133     -0.82710357446616
  H   10.10951916097893      3.00351191005673      1.22081994706892
  H   5.38283422056253      3.40270505943803      0.10408239028616
