33
Coordinates from ORCA-job 19254optt
  Br  0.55129281345780      0.21331708734837     -0.82841161919700
  C   2.31907290729217      0.83308866191315     -1.19238076793585
  C   2.95606097369082      1.64141797969668     -0.31175832138860
  S   4.69449700426232      1.74821230841181     -0.39138102986020
  C   5.13931349156343      0.59442804450578     -1.68694422993536
  N   6.26975693260703      0.03200162585265     -1.74379284231118
  C   4.15857819094307      0.55923730774115     -2.76349014590272
  C   2.83471210689369      0.64301687347576     -2.54131176219329
  C   1.87514709245365      0.81719688356637     -3.70263479490350
  C   1.10187785636527      2.16487168516081     -3.75527597069725
  C   1.90045071893712      3.49108536577268     -3.87407507423206
  O   1.72556243734720      4.41808145183793     -2.80278293713815
  C   2.26154616651218      3.92082707596928     -1.60278629715241
  C   3.12470776507578      4.82634662093734     -0.71698458068927
  C   3.14170147660154      4.04657787551124      0.63971112065418
  C   2.24297679112222      2.78731343133108      0.43442253727155
  C   1.25158419052352      3.39348292302973     -0.58028519447864
  H   6.84452276851333      0.21076937751114     -0.92219535545251
  H   4.55392388876073      0.48118001605548     -3.76895173708089
  H   1.12838011083324      0.02080292659154     -3.68864059639767
  H   2.45107022689228      0.69740723241315     -4.62170762163234
  H   0.42903554015589      2.23412294546542     -2.90318522267738
  H   0.44895864174443      2.08925037337589     -4.62685904359644
  H   1.57702176061697      4.03233335567541     -4.76131480638804
  H   2.97054845059110      3.27465172584128     -3.98780366042865
  H   2.91991926768041      3.11057734073700     -1.89950392629250
  H   2.65782410502330      5.80507381013848     -0.60075282529386
  H   4.12447667798445      4.96900360593795     -1.12485474919057
  H   2.67256931135740      4.64379716295902      1.42065711164994
  H   4.14880307247832      3.82010153710208      0.98362248838353
  H   1.79011923498541      2.44774526175578      1.36462166553311
  H   0.72562636127098      4.23544749673816     -0.12243656282988
  H   0.51036166546289      2.71723262964037     -0.97553324821607
