27
Coordinates from ORCA-job 19265optt
  Br  1.18305285826136     -0.34219591002381      0.11880607820740
  C   3.01742057322027     -0.00333899740483      0.06043355587964
  C   3.55900196261773      1.21572064236823      0.10624682741161
  S   2.76426118092276      2.75370453813788      0.22496388660635
  C   4.35138736640749      3.62387967588949      0.20423149270010
  N   4.50212842230868      4.87731513712123      0.26399370806817
  C   5.42394919104839      2.64564512583596      0.10427035133981
  C   5.00749356352399      1.36542817872707      0.05198225269514
  C   5.75091540945567      0.13725644652784     -0.05336383508318
  C   5.11351889411385     -1.04313775730429     -0.09595149989757
  O   3.75212300271244     -1.13498555415533     -0.03735654573522
  C   5.75218758685895     -2.38532638770750     -0.19893044065885
  C   5.30984378668851     -3.12618050340362     -1.46492618087972
  N   5.86496789304964     -4.46394725531246     -1.42781354450928
  C   6.20878288962325     -5.05960781119909     -0.24709362307709
  N   6.04639801360233     -4.58971075402426      0.92120710890357
  C   5.44456883130894     -3.27205375995536      1.01990373031707
  H   3.62570613781021      5.38879102411750      0.33005474643613
  H   6.45078289686385      2.97841692641856      0.07906378601122
  H   6.83031464365038      0.14935697792765     -0.10177320433572
  H   6.83253974492397     -2.23246803426601     -0.24550887893859
  H   5.66917857878536     -2.60789314146189     -2.35483358155796
  H   4.21770758814490     -3.15444704828064     -1.50590116643984
  H   6.12262783807169     -4.91471268865278     -2.28672814280636
  H   6.66654631016994     -6.03965315616562     -0.36250933490292
  H   5.81475284561829     -2.78957560047377      1.92556352955834
  H   4.35984199023708     -3.36928031328012      1.12896892468775
