25
Coordinates from ORCA-job 19260optt
  Br  10.93839219531169     -6.10022362551372      0.92998057343462
  C   10.68599990834756     -4.29071648726709      0.44221573714938
  C   11.75279920463726     -3.47790767972847      0.22147881872653
  S   13.37912003138373     -4.07963122015516      0.42645149710817
  C   14.31905403841449     -2.64050479467096      0.19708405158877
  N   13.91944862208679     -1.46051165491653     -0.06210794843563
  C   12.57953568853972     -1.19567586637835     -0.24798333767647
  C   11.55284872960043     -2.08576374165482     -0.16777759876161
  C   10.18955278944477     -1.76531004096314     -0.59026034917680
  C   9.78018867730001     -0.70448633921348     -1.31981807809108
  O   10.24946225630466      0.62107383127276     -1.21068324935436
  C   9.11638870815148      1.00141911237991     -0.44288299155466
  C   8.93545526715813      0.34964310857261      0.70947428946905
  C   7.75390699081537     -0.50840463683330      0.96172278492968
  C   7.88631248870851     -1.80589099732078      0.60365939008164
  C   9.09227353755749     -2.50800969342384      0.07493243653410
  C   9.35656556228827     -3.75998356656194      0.51820945269836
  H   15.38343920393318     -2.83122666239899      0.30575720021330
  H   12.36256986936649     -0.17390375706541     -0.52759085425928
  H   8.78155903656450     -0.75526842265527     -1.74166956405557
  H   8.33107208851177      1.45807750530074     -1.03558552196817
  H   9.85657878782429     -0.07418648371153      1.10240024286983
  H   6.81421232718862     -0.15036810668987      1.36134224752705
  H   7.04207108317653     -2.45881720512948      0.80367400888465
  H   8.61819290738412     -4.32042257527385      1.07997676211852
