26
Coordinates from ORCA-job 19266optt
  Br  1.03741969516461     -0.30471261183647      0.02799115318160
  C   2.91743363049132     -0.19785765126052      0.07211614839740
  C   3.53469583863795      0.99776636307144     -0.00999203772776
  S   2.85911303986279      2.58038458411110     -0.19035004254747
  C   4.50839153908320      3.34413663965599     -0.20622009692867
  N   4.73853838688014      4.58197720828162     -0.32864598338601
  C   5.49976970288513      2.29717784757534     -0.05038070666370
  C   4.97670834454116      1.05489552256502      0.05451710317804
  C   5.61344371606572     -0.22059521262992      0.23618367363641
  N   4.97783691926594     -1.33982303806542      0.31314622962080
  N   3.63924460142240     -1.35700038409208      0.23228098061026
  C   3.06047606132000     -2.69343168252318      0.16410364583193
  C   2.74521915136070     -3.11555422180234     -1.25777568109910
  O   3.95449425378458     -3.13850539060664     -1.97924958944158
  C   3.75746346839318     -3.41527802570252     -3.33763556868205
  C   5.05735594891565     -3.41581548965966     -4.01634214718347
  N   6.05835771208283     -3.42457980350892     -4.57033009308278
  H   3.89927760753977      5.14671909498145     -0.42563945143357
  H   6.54978041312186      2.54670947448065     -0.02594649529424
  H   6.69006147899291     -0.29695918996732      0.31845123288716
  H   2.15972567752489     -2.74071343337577      0.77346115114264
  H   3.81313535552502     -3.35626894530744      0.58344480466918
  H   2.03768782603088     -2.41799909702751     -1.72139635884587
  H   2.28373120948540     -4.11124626522304     -1.24232611813106
  H   3.11741667981766     -2.66054237032589     -3.81017887106681
  H   3.29022174180426     -4.39688392180796     -3.48328688164127
