21
Coordinates from ORCA-job 19261optt
  Br  1.26681136203874      0.59760032155947      0.05618845424743
  C   3.06232720949738      0.11592319011788      0.05534871980824
  C   3.52647004134693     -1.13505724125349      0.05685493781245
  S   2.63132355786896     -2.62333860335678      0.06001752838974
  C   4.16059115235104     -3.59588007673653      0.05969679073967
  N   4.23300055708707     -4.85531267464195      0.06138247714520
  C   5.29907538483848     -2.68654556563518      0.05705902595363
  C   4.96175263581212     -1.38411261653195      0.05557281665926
  C   5.80227378970534     -0.21164108161965      0.05254682537800
  C   5.21413552953264      0.99159952136814      0.05151575664755
  O   5.80706187377770      2.19592759528902      0.04883306421653
  C   7.16293768421479      2.38860081652636      0.05021865187055
  N   7.63295285580795      3.54644269283963      0.05037874968987
  C   8.11845086286604      1.21479431964000      0.05114109524399
  N   9.36406579114764      1.37894081236222      0.05202228569076
  S   7.53501647281956     -0.44160914450911      0.04997378690102
  O   3.88610088987551      1.19774139397799      0.05302902054789
  H   3.32807387666745     -5.31912914580875      0.06301810583562
  H   6.30293085372111     -3.08559746808289      0.05649171214629
  H   6.90479648878675      4.25825135355637      0.04970877217576
  H   9.58385113023675      2.37740160093921      0.05200142290055
