23
Coordinates from ORCA-job 19269optt
  Br  1.17054192101292     -0.55466408974331      0.09777083601315
  C   3.03285424040953     -0.35438923541462      0.27779582778290
  C   3.61717964511893      0.84304872298951      0.07772611304456
  S   2.94219538540820      2.37989139958036     -0.34902831365210
  C   4.57559152907035      3.16746488639375     -0.32646334177554
  N   4.79999681256456      4.38790415263438     -0.57187584250056
  C   5.57643906734036      2.17621943805096      0.01759718405334
  C   5.05325414979871      0.95165036209799      0.22914142708179
  N   5.68825474404363     -0.21880861744766      0.58114073252407
  C   4.99859324377616     -1.38028246570622      0.74954619901330
  N   3.72464928729072     -1.49041429354179      0.60744963890134
  N   5.81643779495773     -2.45571066724614      1.10877565257822
  C   5.26823194864768     -3.78576106333783      1.00389573601250
  C   6.25910379080787     -3.31841408007121     -0.00401711457763
  C   7.63144160881538     -3.75195456068880      0.00144145029818
  C   8.76919543928713     -4.12316255943201     -0.00846441089881
  H   3.96006022989306      4.91713978307115     -0.79019477312342
  H   6.61788585306141      2.45051583366804      0.08586015829447
  H   6.68088911851990     -0.23282047304396      0.76562937426823
  H   4.23859330128681     -3.86595640242344      0.68191512972863
  H   5.60273794797750     -4.46384459795368      1.77609148614779
  H   5.84952004625980     -3.06742302330604     -0.97674525212427
  H   9.78135289465153     -4.45122844912939     -0.01598789709013
