23
Coordinates from ORCA-job 19264optt
  Br  1.14535161275444     -0.24793861288108     -0.10136993331453
  C   3.00284064726272     -0.00442071001090     -0.05337041175287
  C   3.59165354270354      1.20410286106767     -0.04090523077707
  S   2.82108851062707      2.75752281278102     -0.04310129568414
  C   4.41562403805267      3.60794519923436      0.04429889907459
  N   4.57469866976497      4.86474797062999      0.07910530548712
  C   5.46845533677289      2.61470601252138      0.06393074475415
  C   5.04176255251120      1.32845614005769      0.00924450984484
  C   5.79926798974910      0.09469026030645      0.00651426980738
  C   5.12271672143441     -1.08062409443350     -0.01505929683704
  N   3.75817955129926     -1.14679835049079     -0.02780836585768
  C   7.26307096344180      0.08601805967759      0.02210144259656
  C   8.13565591036870      0.94707199767519     -0.61136359474078
  N   9.37660305152975      0.49851712878390     -0.34015432329850
  N   9.38879533511048     -0.58738581998488      0.43319439366036
  C   8.11521646277204     -0.84763597896251      0.65872810643419
  H   3.70052747308910      5.38289666903017      0.05812720762974
  H   6.49371928275695      2.93812749487110      0.14399642924763
  H   5.63202526460851     -2.03349219945369     -0.03993211034411
  H   3.29317987284653     -2.03815951215113     -0.06207336180671
  H   7.96307242431123      1.80645245701572     -1.23627459529527
  H   10.24988569502003      0.89809964613059     -0.63825302377218
  H   7.83960909121255     -1.68089943141434      1.28642423494433
