22
Coordinates from ORCA-job 19276optt
  Br  1.15044406394856     -0.43502543291575     -0.06748277500537
  C   3.01600788505984     -0.23330110783316     -0.06431381594205
  C   3.64009215335084      1.01419465905958     -0.06360517362447
  S   2.59534039646444      2.42051646693121     -0.06494309641757
  C   3.68320003398777      3.82054788186380     -0.06128576043732
  N   3.22289510801649      5.00169895971330     -0.05944910338083
  C   5.12160076365376      3.59450960737055     -0.06090908444482
  C   5.72042885556731      2.40124662976587     -0.06125201295428
  C   5.05153477833029      1.11091278386117     -0.06193936272722
  C   5.82482613227334     -0.05944639250673     -0.06080524644199
  C   7.25590513618553     -0.00618271288693     -0.05939346011481
  N   8.40365318136914      0.00774623930847     -0.05810884770032
  C   5.20563330394254     -1.30834650205764     -0.06099949368150
  C   3.81296140833974     -1.36116923089618     -0.06268332058161
  O   3.39075127853819     -2.64028405423994     -0.06260472042099
  C   4.51718819481604     -3.41274854230477     -0.06092291932227
  C   5.64463963227966     -2.67675356705448     -0.05984461590786
  H   2.20434909147092      5.03910892981308     -0.05978097075414
  H   5.70882241182062      4.50433850890970     -0.05999770727935
  H   6.80363171171450      2.37518355815468     -0.06064556298511
  H   4.34329402096037     -4.47498497737363     -0.06061609956205
  H   6.65780045791010     -3.04076170468223     -0.05841685031408
