24
Coordinates from ORCA-job 19271optt
  Br  0.88480309855855      0.16527441934847     -0.40745591245180
  C   2.74611244052293      0.07057466234754     -0.19709463118742
  C   3.49227332480538      1.17623003356249     -0.03625025006287
  S   3.03258886320141      2.84220844498222      0.02050613796925
  C   4.75326199701552      3.36625866921888      0.25402156464263
  N   5.13711894145284      4.56259850618315      0.37952202291697
  C   5.61224494447349      2.19586703636257      0.27268301618738
  C   4.93078447237114      1.04913807114903      0.12132499664056
  O   5.49599114553687     -0.17932090827629      0.09875245168672
  C   4.71753731764973     -1.28104588591225     -0.05294636635241
  C   3.39112623842560     -1.21926989216546     -0.20660454432197
  C   5.55883466242381     -2.52338566524979     -0.00772690326663
  O   6.02631951028467     -2.66028483414297      1.33284891104691
  C   7.10382302608661     -3.47404948380446      1.50668933188282
  N   7.59049211588799     -3.76205693500104      2.62026243273676
  C   4.83930659329273     -3.72303819919974     -0.44133584309487
  C   4.28960422437049     -4.73085036894863     -0.77556777580910
  H   4.37854153021149      5.23883583070121      0.34130828356370
  H   6.67873380526647      2.28762146509086      0.40148774506992
  H   2.82179526653137     -2.12793283219844     -0.32663962871129
  H   6.41851881443330     -2.36310552924764     -0.66985413609283
  H   7.52936297826664     -3.86551996212754      0.58201838273764
  H   7.06929183101491     -3.32226248411098      3.37948343021551
  H   3.79753285791598     -5.62848415856117     -1.06843271594560
