24
Coordinates from ORCA-job 19270optt
  Br  0.80434763800684      0.09245857967055      0.23132996579059
  C   2.67716352309551      0.06328343379620      0.10042785465046
  C   3.36292170642212      1.22038956194642      0.01923446450958
  S   2.79190250525946      2.84592599625786     -0.03217132766259
  C   4.48678905299460      3.49934382868965     -0.15546660248651
  N   4.77655835763235      4.72753674335025     -0.24623439915173
  C   5.41748598184068      2.39675629224825     -0.13125015288944
  C   4.81219564072101      1.18777655869241     -0.04106737589900
  N   5.36696908706263     -0.05407079898057      0.01489811519698
  N   4.69624632126402     -1.21323994075961      0.06490605525128
  C   3.40820384414297     -1.18962279519212      0.10339050503919
  C   2.67272159932708     -2.50835682570720      0.10124816113623
  C   3.55224592431033     -3.76152137634206      0.29832705712324
  N   2.94139812192222     -4.67919392461210     -0.66898936742454
  C   2.21216996631583     -3.89603676511768     -1.53622141326455
  N   1.99272031489031     -2.69234195099126     -1.19593354242619
  H   3.96447490165874      5.33832236179851     -0.24762690139183
  H   6.48014236478599      2.57528744230581     -0.18715210070167
  H   6.36722727944521     -0.16256567075293     -0.01494156279555
  H   1.89990634915382     -2.46229997989405      0.87467868371333
  H   3.48998563706709     -4.15227579140212      1.31157222169006
  H   4.59441629240303     -3.55611545713688      0.05305494258227
  H   3.49480195544654     -5.43049789260491     -1.04967492022587
  H   1.82300563483155     -4.33094162926243     -2.45033836036375
