17
Coordinates from ORCA-job 1928optt
  C   0.95358607641544     -0.20517873326755      0.09651897987439
  C   2.47352452622159     -0.12046436433236      0.06378530494967
  C   2.96592190109280      1.32371044772280     -0.06031872507234
  C   4.45595752072597      1.42109178977750     -0.05627905016613
  C   5.17979920975843      1.94099846853719     -1.04679777330363
  C   6.60475767102338      2.01098823270975     -1.03216027602542
  C   7.80290120019726      2.08022817664779     -1.03994641885599
  H   0.61388435038423     -1.23723820165604      0.18399185724134
  H   0.52081343334637      0.21353054998212     -0.81396258512203
  H   0.55131991121718      0.35423886147203      0.94326411582724
  H   2.86515826653247     -0.70218573839462     -0.77411321207928
  H   2.89078273794163     -0.56410354430801      0.97183353142560
  H   2.56419260349103      1.89992154202707      0.78074508787580
  H   2.56748038149030      1.77344284359859     -0.97354718964392
  H   4.97264425644430      1.02125228516657      0.81209860982722
  H   4.68452322039127      2.34304687373664     -1.92532378649545
  H   8.86475273332630      2.13872051058054     -1.03978847025706
