24
Coordinates from ORCA-job 19285optt
  Br  2.13197468887788     -0.99433059166791     -2.73075663625114
  C   2.93595807676748     -0.17418146579059     -1.25108996053865
  C   3.51596401763582      1.03395849551736     -1.27946753384308
  S   3.20507200682438      2.28964971796623     -2.49934321921694
  C   1.58782774610716      2.53033721606263     -1.72457469111490
  N   1.23188769856707      3.61925865695893     -1.21862839406476
  C   0.07144396234502      3.69870257727265     -0.43922172641027
  C   -0.12335295313367      3.24738239198414      0.81169788166696
  C   0.79019452871169      2.51768542718581      1.73395514735238
  N   0.43354762400156      2.02212046472384      2.84583179310910
  C   2.18258093266257      2.43418836228159      1.24751098180191
  C   2.86804532854095      1.34329588121003      0.90576187259072
  N   2.48640611228670      0.00205295265818      1.09484976498966
  C   2.62526877779760     -0.75258954610978      0.07723161533102
  N   3.95320653099517      1.48535736425289     -0.00336213913925
  C   5.09801330043610      2.21765212254616      0.16758974915005
  O   5.89231548269346      2.41524697784361     -0.71226667801949
  H   0.99344156299172      1.61362385702171     -1.65341099357342
  H   -0.71970781256273      4.27981487126594     -0.90213537798389
  H   -1.09319882756546      3.47382469195218      1.24156255403288
  H   -0.56397127032792      2.17073299648254      3.00612128998918
  H   2.57983728696636      3.36492303246612      0.85956863964761
  H   2.38665951153407     -1.80837470794785      0.15805501527920
  H   5.20358568684701      2.58666825386356      1.19852104521512
