22
Coordinates from ORCA-job 19283optt
  Br  1.18641296900079      0.28671476920984      0.21032301464134
  C   3.05012957037536      0.16020075036709      0.09242853385281
  C   3.67705020526032     -1.04040645415699      0.09854686506217
  S   2.70535065968371     -2.48992116709351      0.22408723986591
  C   3.85671027718468     -3.83412901185737      0.09274646939268
  N   3.44994033336294     -5.03314421095521      0.09368929178244
  C   5.28837674083488     -3.57726245486122     -0.00045050252187
  C   5.84866681036988     -2.36018583284524     -0.03440069136022
  C   7.28428557947703     -2.29157477055131     -0.11139949803871
  N   8.42706738393830     -2.21753242576338     -0.17049044834626
  C   5.12631906853190     -1.09185207433145      0.00671471569975
  C   5.80757767599127      0.07268501529628      0.00829475568005
  N   5.17685800318082      1.29071512067106      0.04890948767762
  C   5.96879910801304      2.42263270802281      0.33611244615071
  O   7.16102806530114      2.39831972645027      0.34578783559023
  C   3.76591242023722      1.42274711903925     -0.09367346307705
  N   3.15339007059999      2.49764027147638     -0.36571019209731
  H   2.43581147829983     -5.11745496202737      0.16137075052588
  H   5.90174944273356     -4.46809282365830     -0.03802078027270
  H   6.88831870067027      0.12926813436035      0.00999579649630
  H   5.37141057937982      3.30563532869461      0.58740024934707
  H   3.75683485757320      3.28699724451342     -0.56726187605086
