25
Coordinates from ORCA-job 19284optt
  Br  2.67229358643228     -1.90282130031231      0.67443627378325
  C   3.07646555593353     -0.15469638764439      0.12595096026109
  C   2.13952556659063      0.71652874259237     -0.31785039082972
  S   0.44591768172933      0.23835318284592     -0.43289645095846
  C   -0.14101368150478      0.70367438390565      1.24981412792282
  N   -0.87179284199954     -0.03997207328873      1.94101934284164
  C   0.20074896750215      2.11792479285028      1.50663380661226
  C   -0.67071129966549      3.05614035000425      1.15836242571721
  C   -0.17600484724602      4.32394508471971      0.56399721638468
  N   0.35859387785637      5.27779477501313      1.19256574229948
  C   -0.30170070365015      4.12053665565228     -0.91875898697756
  C   0.61411961932531      3.44588380032479     -1.61172161762415
  C   1.98532051793505      3.16464607545230     -1.12998163169033
  C   2.60705816437807      2.06170207102986     -0.67979483468301
  N   3.99109115379722      2.18298919878270     -0.42212925817706
  N   4.83463225780257      1.27457098986715     -0.00226224312001
  N   4.43424011341671      0.11094198290745      0.26337471116087
  H   -1.01304420516579     -0.95692222436872      1.51715057684883
  H   1.24641447796333      2.36691078962329      1.64555765272680
  H   -1.68763357437176      2.76953684597800      0.90594372075229
  H   0.69229366154338      5.98915839705352      0.54043229538925
  H   -1.25633791969494      4.36277293228257     -1.37470925442616
  H   0.39456999684487      3.19199886288405     -2.64516467786151
  H   2.63524021315418      4.03464423109140     -1.20880114051256
  H   4.43471366109347      3.07175784075345     -0.60116836583995
