23
Coordinates from ORCA-job 19295optt
  Br  0.09761609001508     -0.23862267576162      0.87023498518084
  C   1.74208924383242     -0.60115667991868      0.05087639827096
  C   2.76214476871213     -1.29992538928311      0.63020822309800
  S   2.45992429341144     -2.54816568187142      1.83973242600047
  C   1.33115061378798     -3.60194025793690      0.88488559632150
  N   0.86469017278522     -4.57074441273472      1.54123415481247
  C   1.04171137651979     -3.21082474486437     -0.51680149020521
  C   -0.21179404067691     -2.88471496944530     -0.83095649296340
  N   -0.65819277838813     -2.17496919085426     -1.95356012643880
  C   -0.28383482987329     -0.84888915151082     -2.30917721763821
  N   -1.10626114112125      0.00452094622950     -2.75493292865609
  N   1.07474510333488     -0.55522620001337     -2.34135694607480
  C   1.88929915934673     -0.39838137617775     -1.38634375610888
  N   3.22631120983661     -0.15861068261868     -1.72631798722743
  C   4.23861741672044     -0.59172416007537     -0.94149415823008
  N   4.05212442705615     -1.21636150182823      0.16578344930567
  H   0.29524585636672     -5.16984586522657      0.94420585440636
  H   1.86477265050261     -3.00619659650601     -1.18874253657370
  H   -0.99631366325244     -3.11659934995524     -0.11527339769296
  H   -1.65047984006524     -2.28815566433108     -2.09936030511526
  H   -2.06586804819301     -0.32859914973108     -2.72031862253917
  H   3.39278911770869      0.10207319585157     -2.68927629147899
  H   5.24351284163334     -0.40994044143648     -1.30424883045326
