21
Coordinates from ORCA-job 19297optt
  Br  1.20477544844354     -0.00686487905881     -0.06380201644661
  C   3.09005891026601      0.04425530549333      0.00868094299057
  C   3.76559919852989      1.20666806776361     -0.14685119594390
  S   2.85064895418429      2.66654596122953     -0.48536917678450
  C   4.02014355807328      3.86322405395406     -0.09062343158563
  N   5.25540838405474      3.69481428600220      0.16262204614961
  C   5.87116733928444      2.46099792173234      0.03949868587279
  C   7.34537831449855      2.69021713368923      0.17883413155213
  O   8.21895989917506      2.07823374691634     -0.36682949680467
  C   5.23886039377035      1.25505449375822     -0.11625073022641
  C   5.90768146325275     -0.05347028358221     -0.11980980234378
  C   7.17586325512532     -0.50927133649267     -0.25809956647991
  C   7.16410473587764     -1.96829497880128     -0.07029743466851
  O   8.03947996197984     -2.77146184415789     -0.09386405242210
  O   5.84132496404085     -2.34459159106229      0.15489119222440
  C   5.08025755823656     -1.23258540818922      0.09994163633484
  C   3.74598059637547     -1.22090817182791      0.17979149634535
  H   3.60918105794618      4.86918721723899     -0.06047698343887
  H   7.56172985196427      3.56421902133150      0.81559644618508
  H   8.07830871804606      0.01924590124212     -0.49419819230637
  H   3.17508743687478     -2.12621461717921      0.32161550179647
