21
Coordinates from ORCA-job 19299optt
  Br  1.06553154557415     -0.86467208071513     -0.90929485089600
  C   2.40380132038380      0.15681683754843     -0.09550845884378
  C   3.12439287159625      1.13193254773586     -0.65747833472995
  S   2.60839212287567      1.99027154855740     -2.10016976750186
  C   1.00867594920155      2.68975888787575     -1.55833684746000
  N   0.14035115029804      3.06193772726533     -2.38861869544065
  C   0.81589565549444      2.79860130988465     -0.09573153458815
  C   -0.33164448763151      2.56027148079462      0.53756706532498
  O   -0.34052685961696      2.36817425762306      1.93236613411131
  C   0.63181969660612      1.42892179856948      2.11338428300535
  N   1.75280702965102      1.71773157719535      2.63243036181190
  C   2.79043423837508      1.12871160176077      1.91257010040175
  O   2.50210244681053     -0.06865846172063      1.24828394244767
  N   3.76297810061841      1.84455996887222      1.55268742362472
  C   4.22347063396434      1.64271047314555      0.23133164364641
  N   5.35017715999467      1.96251825278879     -0.22699548721471
  H   0.39592882545270      2.86013211274838     -3.35491681597255
  H   1.70405415338764      2.98187281005242      0.49503704787578
  H   -1.29060939973078      2.40588894642966      0.06113271795954
  H   0.39978446406990      0.49018620218925      1.61350212410104
  H   5.95218338262488      2.31733220139876      0.51575794833720
