17
Coordinates from ORCA-job 19293optt
  Br  1.10878187858185      0.07275243041058     -0.11108632073676
  C   2.97889792639244     -0.02408551884844     -0.09601547311974
  C   3.62360963484343     -1.21221412520142     -0.09217404055755
  S   2.72234497368485     -2.71067578132814     -0.09675438077503
  C   3.99599960968650     -3.87858342619592     -0.09134380371069
  N   5.25784188054758     -3.70042190007187     -0.08645642302125
  C   5.77856255476132     -2.42581915617636     -0.08362771634165
  C   7.21857480996072     -2.37724269741710     -0.07946106090762
  N   8.36444192994143     -2.39123540292910     -0.07551205152533
  C   5.07634445680834     -1.25493079819720     -0.08470469423492
  N   5.81350859316252     -0.08201764733809     -0.07994210460719
  C   5.19980139653651      1.03340212178054     -0.08114558126676
  C   3.73319006872021      1.22152124728981     -0.08830275400663
  N   3.16782282749305      2.36274834113453     -0.08775527703123
  H   3.61585179062639     -4.89670657608839     -0.09291493331274
  H   5.80220773998401      1.94104172962585     -0.07710316423145
  H   3.85921792826883      3.11246715955072     -0.08170022061347
