21
Coordinates from ORCA-job 19303optt
  Br  1.19965495355970     -0.30852828166153     -0.08636244718379
  C   3.03690689923821      0.00276310449515     -0.07335618197606
  C   3.58313606478398      1.22215342095676     -0.06566874253149
  S   2.83653554331261      2.78653809309770     -0.06534273832921
  C   4.44121822228831      3.58998666273648     -0.05737600591997
  N   4.60039825749460      4.84509255690860     -0.05619891559993
  C   5.51863926904224      2.59074315636314     -0.05275460631167
  C   6.97862438750568      2.89126369129096     -0.04626055420137
  O   7.80733523860863      2.01319902839570     -0.03381598720916
  N   7.30417141175183      4.23108715711812     -0.05710011153845
  C   8.61453055845413      4.67345446279608     -0.05802812542184
  O   8.90224891049920      5.83888310238663     -0.07004528097017
  C   5.02121195033072      1.32807989708288     -0.05755597443822
  O   5.76598894946804      0.20811284824033     -0.05707203413701
  C   5.23086295716692     -1.04992124115399     -0.06461769775755
  O   5.93295562512566     -2.00631521926015     -0.06404811040604
  N   3.85230056413578     -1.10751552258441     -0.07235870310481
  H   3.73530076438259      5.37741347791486     -0.06011686403829
  H   6.55101712357894      4.91812160091352     -0.06441161604099
  H   9.34290092061913      3.85513072095105     -0.04672797083541
  H   3.45706142865307     -2.03574271698791     -0.07778133204857
