22
Coordinates from ORCA-job 19300optt
  Br  0.85391927386027      1.39287436257992     -3.36217307461692
  C   2.26771074679059      1.14491866481005     -2.15268715299382
  C   2.93405667610651      2.14735080709071     -1.57404181505898
  S   2.34165693740031      3.80836162494778     -1.44777873855674
  C   2.02662603282515      3.69753469002863      0.33896949186711
  N   1.39557764840033      2.80016433054181      0.95659608565673
  C   0.58897668813044      1.85485892363215      0.32634643388315
  C   0.46287706317992      0.55825706918259      0.59781466626475
  O   1.18569765144379     -0.16625804301176      1.52622494662685
  C   2.22977773114364     -0.92996257423224      1.07520443582682
  N   2.45993496066925     -2.03354949270468      1.61627220163567
  C   2.99388906829333     -0.21376449426624      0.00740727381337
  S   2.49876214930516     -0.52108308764749     -1.66264254488630
  C   3.79897455100743      0.80484563731103      0.29797368999390
  Br  4.34652916574535      1.17625065879785      2.06116602420673
  C   4.12568220560967      1.83475792932649     -0.72125094916686
  N   5.19009044449670      2.50026731706253     -0.82747567951789
  H   2.49416816462398      4.50173312476176      0.90105336617022
  H   -0.06707379252304      2.24117118507075     -0.45130565578816
  H   -0.26461135853257     -0.02850994349611      0.04947199871301
  H   3.30775075552463     -2.45072353387815      1.24031792221646
  H   5.87702723649914      2.20850484409263     -0.12946292628911
