21
Coordinates from ORCA-job 19316optt
  Br  3.80612003938709      1.82593623708506     -4.26686085091528
  C   4.03670455262785      0.73203903460605     -2.77133187732952
  C   3.76602766898522      1.11495290727700     -1.51341238995269
  S   2.99583207775351      2.64228880775039     -1.02514347042119
  C   1.46805845077586      1.79526081332118     -0.46199369710769
  N   1.10007786661463      1.42959848746268      0.67702633166701
  C   1.72947135663395      1.51843918541914      1.93063148618479
  N   1.69738263916806      2.59228295767052      2.58835640791915
  C   2.28336998106703      0.17692132062502      2.39831969786210
  N   3.27542336981842     -0.37957359927620      1.82962758388270
  C   3.79776594693443      0.44191052428898      0.81920789346295
  C   3.93773957356176      0.10740609015824     -0.46934041017204
  N   4.01596971404501     -1.17753778008146     -0.98711811563852
  N   4.38178621084242     -1.46649787962237     -2.23001749734273
  N   4.46608248148669     -0.56347918445321     -3.09703722249162
  C   0.60304809198535      1.48411880926857     -1.58702888676960
  N   -0.03759653711428      1.23993958524874     -2.50588700320590
  H   2.10506121734725      2.46468421428746      3.51394915722744
  H   1.78327221123130     -0.31200664096268      3.23035123777703
  H   3.82371722040081      1.50045133502918      1.02964984201838
  H   3.99968586644759     -1.97713522510232     -0.37094821665478
