22
Coordinates from ORCA-job 19319optt
  Br  1.28618406036781     -2.18561094287719      1.50291067555667
  C   2.69477640723070     -1.18151310932693      0.75718878812732
  C   2.48914328779675      0.02896231880407      0.15262721858002
  S   0.84740495502879      0.60159642965305     -0.10814230560513
  C   0.82417721284601      2.28938663791878      0.50004346265203
  N   -0.21500577885600      2.81977150859049      0.95933452437612
  C   2.06935298634544      3.08852891042673      0.26783601358181
  N   2.46830891523022      3.89193103973139      1.15355835303491
  C   2.74240834889356      2.83837176772869     -1.05939697977891
  N   2.54577711839610      3.56219656232984     -2.08042195763895
  N   3.70524860438607      1.84789566443016     -1.06081352190154
  C   3.63647302518275      0.73232763896105     -0.44001417865906
  N   4.83889503632301      0.04477953071423     -0.35111868683924
  C   5.01248959590943     -1.15544878668264      0.25319930653078
  C   3.97262054090227     -1.79883659102471      0.83329292053198
  C   6.33792501882133     -1.70095390434505      0.24502743628340
  N   7.40073285376851     -2.12932248514460      0.23572271939014
  H   -0.99175046968617      2.16468949696014      1.05418684979017
  H   3.31528091665901      4.37609285870174      0.84779210600483
  H   1.85113775640334      4.28068524020757     -1.88158867530498
  H   5.62037198195908      0.51625103552869     -0.78866145684519
  H   4.10804762609196     -2.75278082128551      1.31543738813281
