24
Coordinates from ORCA-job 19326optt
  Br  1.17715727816277      0.18034512110582     -0.42964579392678
  C   3.04136271759129      0.16815853077258     -0.20888718520595
  C   3.69003572310817     -0.98723203502797      0.03094784896256
  S   2.76034325160133     -2.47523237774828      0.19655730333358
  C   4.03098093858737     -3.57852654696268      0.63252344021923
  N   5.27960481445423     -3.41831004352973      0.50896625538216
  C   5.77381223693278     -2.24628908937932     -0.07688120952093
  N   6.79326046161708     -2.21768955404552     -0.81053242721119
  N   5.07089516610919     -1.03773041208438      0.22478536564866
  C   5.76103444845291      0.17772958382213      0.32670210644228
  C   5.13843393415707      1.35170938240000      0.10975081667695
  C   3.74201488297103      1.45507160320781     -0.26924444533940
  N   3.10793631397880      2.52110509516588     -0.57392294916411
  N   7.10174396392973      0.09598142531142      0.67064633364350
  C   7.62034921376515      0.92013341949794      1.73541254175416
  C   7.50336651949780     -0.55591095956740      1.89497356716728
  H   3.65377441898688     -4.51314828878188      1.04159023611004
  H   7.19744289259608     -3.15203518411709     -0.85328847377808
  H   5.70824260192857      2.26239377617410      0.23533974601633
  H   3.73325693338453      3.32464883233591     -0.55636638005238
  H   6.91231487753237      1.53202694713671      2.28330764771673
  H   8.58575269209969      1.36899132846634      1.54556154990076
  H   6.71709601779078     -0.91429761846982      2.55098678473832
  H   8.37678770076435     -1.18889293568255      1.81571732048629
