21
Coordinates from ORCA-job 19336optt
  Br  2.64601274025062     -2.12363130820800      0.59623255071693
  C   3.11779470625248     -0.37145517552254      0.13232930172690
  C   2.48951604275708      0.74415074769770      0.53129898633638
  S   1.13557196346742      0.72078899828907      1.65836059627614
  C   0.06234147782731      1.56098153357258      0.55327041869714
  N   -0.80883752864195      2.39004615952820      0.92050747537933
  C   -1.22723419840885      3.33727392634904     -0.03662402525969
  N   -2.39536714992423      3.72437353217703     -0.27258969262216
  S   0.12250078498719      4.06923306141859     -1.00121038922933
  C   1.48015175173395      3.78580698738918      0.18833071145215
  O   1.43299737130779      4.10002692512993      1.33052552191424
  C   2.74151736585702      3.14623072251405     -0.38190089206788
  N   3.37590594460002      3.87715361357246     -1.18462361569971
  N   3.18806172273321      1.91946600064788      0.14024740917608
  N   4.60696753711520      1.86267433437460      0.25457846976874
  N   5.14344666175642      0.81759209291781     -0.06394880548376
  N   4.31390570122763     -0.20247332628151     -0.55323068510413
  H   0.35722000132660      1.43149194344467     -0.49293886730302
  H   -3.06731813269155      3.19553937033375      0.28403868021223
  H   4.26751324593054      3.48032405612752     -1.47907773118343
  H   4.86333199053607     -1.03759419547204     -0.69757541770315
