21
Coordinates from ORCA-job 19333optt
  Br  4.88233082729125      0.33471739005818      2.91321858670219
  C   4.76678944202513      0.09583841528746      1.05911206380157
  C   5.29571075732114      0.92225866875550      0.15129839823725
  S   4.81544145123889      0.58129707358098     -1.54321897478124
  C   5.61494783159214     -0.99210064948993     -1.23558470415240
  N   6.72812257893320     -1.22955086734995     -1.75459063201543
  C   7.66911277538962     -2.16578574186029     -1.30695656095089
  N   7.87162242872824     -3.33445434817002     -1.70991249555836
  O   8.54725974128924     -1.55390477976483     -0.46170787021406
  C   8.12042010004058     -1.27825169713993      0.82418516346515
  C   7.74534929507224     -0.09364020586468      1.30077854030148
  N   7.65407176295623      1.15804264805578      0.69002532085112
  C   6.57030221812471      1.67040007728455      0.27750985249733
  C   4.85683413815314     -1.80342262357798     -0.20716977430445
  N   4.74473199904001     -3.04225995666822     -0.13899407339634
  O   4.13116343212055     -1.04257659037166      0.70402066699707
  H   7.19717969314125     -3.59896586730891     -2.42476602011455
  H   8.18492500556297     -2.12473956126034      1.49668603671059
  H   7.55938989819391     -0.07348382636169      2.36979220001179
  H   6.61777566460777      2.66632300836067     -0.15552170285642
  H   5.29551895917769     -3.51274056619464     -0.85320402123138
