21
Coordinates from ORCA-job 19335optt
  Br  1.66895790730855     -1.51364943646076     -1.45453859861069
  C   3.27941840928821     -1.21965480472573     -0.51496019894355
  C   3.44529486562488     -1.60032627565005      0.76303406511467
  S   2.43119314161338     -2.88939413456393      1.43355542724620
  C   3.29358129510634     -4.20643624898523      0.67992748138203
  N   4.28753153294922     -4.02610754942230     -0.08725127309570
  C   4.97090725844681     -5.11970856162975     -0.60857538113894
  N   5.08976172146568     -6.22678564316231     -0.01847583774557
  S   5.63340594509050     -4.83385583077837     -2.26257052008245
  C   6.15060295545714     -3.10428074071980     -2.36738531484660
  O   6.28620879356612     -2.62557576653231     -3.45173747876069
  C   6.47116388066028     -2.40629760201733     -1.09010562063128
  C   5.85370631934162     -1.30531258310846     -0.67884180615705
  S   6.11774483189960     -0.65695588751433      0.93627940304623
  C   4.56115903352546     -1.17097012209336      1.64890191481212
  N   4.37701906274502     -1.15797462536793      2.89766463227742
  S   4.51138134532356     -0.56698494126172     -1.57117585739925
  H   2.90162554099588     -5.19454403492582      0.93169448455653
  H   5.67052173190807     -6.88623002238985     -0.53071038886528
  H   7.18930922163510     -2.89396875609493     -0.43951253658461
  H   5.19850520604853     -0.85898643259573      3.42078340442645
