19
Coordinates from ORCA-job 19338optt
  Br  1.01494979418181     -0.01782430821267      0.00862484289689
  C   2.88331735697962      0.01841480018220     -0.11989590683592
  C   3.54515323889438      1.19736768051275     -0.13984899675065
  S   2.61723232073779      2.68829399553378     -0.05180660344486
  C   3.89478693675572      3.83218015647084      0.25829286450637
  N   5.14674283412668      3.71026543545947      0.11862620586695
  C   5.69872285508897      2.53747863784662     -0.41712683309915
  O   6.69837432870437      2.58395637191487     -1.07600043917761
  C   4.99938432283008      1.23686076903868     -0.14368799832199
  C   5.67731984151960      0.08556700345179      0.06136901075029
  Br  7.54072739723914     -0.00146932286229      0.25173755007445
  C   4.98762681525447     -1.17457364418986      0.14290936680409
  C   5.50903936567351     -2.40674938858608      0.29368223370195
  S   4.32071695945722     -3.63627878096905      0.12052586228083
  C   3.04258145735644     -2.46850765117774     -0.22785775246538
  O   1.91697095533147     -2.74715824201888     -0.52293305026433
  N   3.59355181880589     -1.17716288596831     -0.09039595020772
  H   3.49654851682080      4.77727713682065      0.62442224635971
  H   6.55125288424200     -2.63493776324677      0.42536334732609
