23
Coordinates from ORCA-job 19332optt
  Br  1.14246644095125      0.16740357093333      0.32200507983506
  C   3.00364319953504     -0.00381072665472      0.17499656652690
  C   3.57642846392391     -1.23256727547705      0.07618181780663
  S   2.95596847731403     -2.83665243911602      0.03985435395744
  C   4.64577564413015     -3.47098047988766     -0.09979847103990
  N   4.77700028726622     -4.72738696631150     -0.16263658795946
  C   6.02792178782758     -5.35159738701937     -0.25171762383656
  N   7.20279576147801     -4.88138860303280     -0.25547942477514
  O   5.81560249417709     -6.68031530379034     -0.33359155194124
  C   6.99803683365958     -7.46467628718599     -0.39535266661047
  C   6.62646131548495     -8.87465103760794     -0.44777837277298
  C   6.36598346100587    -10.04139184370445     -0.49173845515203
  N   5.58724268505884     -2.46057527393917     -0.11451909620231
  C   5.00675107939602     -1.30578933157388     -0.02310198225321
  N   5.67146481815794     -0.11794987318867     -0.01240139288708
  C   5.00161594321843      1.06143842715780      0.08504124934343
  N   3.72047811680130      1.15099069594645      0.17719836791505
  H   7.18579726102043     -3.87094211724734     -0.18980932780420
  H   7.62008216178000     -7.26220010101875      0.47894964421825
  H   7.58342681776117     -7.18694516580569     -1.27439710884331
  H   6.12411217721338    -11.07638336481335     -0.52887911551426
  H   6.68031980614970     -0.13680960521522     -0.08098642399829
  H   5.60962496668903      1.95718048855235      0.08296052198770
