23
Coordinates from ORCA-job 19342optt
  Br  1.14601914439802     -0.20208296471841      0.29280366053927
  C   3.02258353502227     -0.09355170363444      0.17172337787171
  C   3.63044635068175      1.11210013900019      0.15177785517075
  S   2.83115583535134      2.65393412254454      0.20581414058892
  C   4.38363912853826      3.54742451440901      0.15344474098705
  N   4.53459040784342      4.80364527634325      0.19394938657300
  C   5.47166012143414      2.57872913958527      0.05785309042808
  O   6.77951054020695      2.90506542064614      0.07770099326788
  C   7.20625138765520      3.97870092372345     -0.77302885481466
  C   8.62571353798186      3.79921965199106     -1.05500276893935
  C   9.79062935544094      3.66933825723202     -1.29303809893903
  C   5.06619541406892      1.28948378181965      0.06400124094948
  S   6.17895613513024     -0.04033015273183      0.00426701535589
  C   5.08930290607615     -1.39579074656302      0.02134006602496
  C   5.77163192141350     -2.71741109008412     -0.05817408282313
  O   5.18902474930763     -3.76554333007034     -0.05581176175554
  C   3.74800012774567     -1.32709320366920      0.09893026709013
  H   3.65890367829789      5.31498144110029      0.27204080095072
  H   7.02603534498253      4.93265451090849     -0.28031482127451
  H   6.63204815025174      3.96237945076509     -1.70255447632245
  H   10.82784267092712      3.55265333207628     -1.49919202990517
  H   6.87439336254909     -2.67573064340582     -0.12262845644051
  H   3.20046619469526     -2.26177612726756      0.10209871541650
