17
Coordinates from ORCA-job 19341optt
  Br  1.41781820028015     -2.06923642706617     -0.16861397807519
  C   2.78537762156523     -0.78911271290933     -0.15569982324875
  C   2.56215665981924      0.53468839498030      0.02028078970789
  S   0.89559637420816      0.98178784091672      0.38545628117646
  C   0.83476244921524      2.69928696233665      0.77813720125357
  N   1.47751930011248      3.68496619205174      0.33976747173148
  C   2.46610684271534      3.55647820993249     -0.64215389948908
  O   2.38831990149136      4.12068858212595     -1.69515458905585
  C   3.67174593693763      2.76998162882768     -0.27925250897372
  C   3.71537791835491      1.45169329230249     -0.03199853335305
  N   5.02264938225546      0.94002452483446      0.04816272199158
  C   5.22247354625614     -0.30548730528611     -0.07501000544947
  C   4.15138680851270     -1.31722523325517     -0.28659559613021
  O   4.41893219769646     -2.47396343585328     -0.49889513388143
  H   0.03927879482219      2.86930414394234      1.50277437028454
  H   4.62115409913702      3.28576311043371     -0.35998518543999
  H   6.23834396662024     -0.69063776831448     -0.03421958304876
