19
Coordinates from ORCA-job 19350optt
  Br  0.79809157259494      0.16832417967722      0.19286807750100
  C   2.67070072183822      0.01132164669000      0.23696868515735
  C   3.33826718890058      0.36917650392095      1.35011773255423
  S   2.57728195228470      0.97328800962485      2.79677980968010
  C   3.93853659825251      1.38492246743342      3.87460608221607
  N   3.73824305484121      1.99960167570060      4.94935020933993
  C   5.39828516874518      0.99963691669091      3.60215131909784
  O   6.25508652284425      1.13721012355426      4.40420331258864
  N   5.65378714269081      0.48532953126516      2.30742143880376
  N   6.92004857924663      0.20099424450495      1.87093126589687
  N   6.83617647970137     -0.21365029353750      0.67198378472698
  C   5.52426778561010     -0.22342669385068      0.28036052622333
  C   4.76765140509741      0.22329572123188      1.32138773655713
  C   4.90809085556400     -0.59935587648029     -0.99596091010483
  O   5.49929657192385     -0.92906687937354     -1.97937748253639
  C   3.35612533848244     -0.52476661989835     -0.97597636525333
  N   2.77874245187067     -0.94334394466874     -2.01567709107472
  H   2.76146384341198      2.24955311179783      5.10709859268449
  H   1.76185676609907     -0.87304382428295     -1.94923672405846
