23
Coordinates from ORCA-job 19358optt
  Br  3.57850001871628      1.93031066356647      0.51507879190746
  C   4.49715036240961      0.77912516093764     -0.67204852542139
  C   5.85280054135520      0.71778654118559     -0.76115954917875
  S   6.58358965381755      0.62824423295720      0.84240111777581
  C   5.70934621287064     -0.93184729187394      1.06152008184610
  N   6.41911940239613     -1.79125591018905      1.93580321575284
  C   7.68700815105336     -2.18251509479936      1.61769615604813
  O   8.47222874336133     -2.70246071609817      2.35138907874355
  O   7.90392385666770     -1.93253780783256      0.28337904381425
  C   9.01117533211093     -1.20403112124130     -0.08297479388489
  N   10.09876253907380     -1.08180635670895      0.52539739085931
  N   8.81646542618668     -0.62491402596187     -1.32430525373953
  C   7.68889176604628     -0.46686484789014     -2.11843534581095
  C   6.45360315231169      0.02728745440694     -1.88285354392155
  C   4.60939711817855     -1.35668761671095      0.41313818528343
  C   3.86899053534895     -0.60053200259448     -0.66081644000213
  O   2.95981614480122     -1.05546072084470     -1.28422423975414
  H   6.07769639924519     -2.01665644131452      2.85756331730709
  H   10.14303033195786     -1.66144833612061      1.35808638247408
  H   9.70016560610628     -0.46323469323447     -1.78369429026958
  H   7.88569212246026     -0.73589304814018     -3.15112319861450
  H   5.81543528996620      0.01214372188070     -2.75946693515894
  H   4.25121129355820     -2.35975174337926      0.61064935394433
