23
Coordinates from ORCA-job 19355optt
  Br  1.13595473384120      0.80875244247289     -1.71550999179149
  C   2.34664769580324     -0.28514345611766     -0.79227956096630
  C   2.11403747283207     -0.92939585911831      0.36449165964663
  S   0.85973681103079     -0.39723285867497      1.47616207647741
  C   -0.00138303374268     -1.87417346185766      2.01013906752335
  N   -0.92698525591827     -1.87699516842662      2.85560992491101
  C   0.51357535564715     -3.15296229496689      1.38384975472700
  O   1.11600899616418     -3.95942022919241      2.02692075668483
  N   0.31704128854647     -3.19796786306081      0.00917886024610
  C   1.35720158716686     -3.41791262605758     -0.93044236433823
  N   1.20947713126242     -3.28313808183516     -2.17921460238588
  N   2.56942297781810     -3.81644313651530     -0.38997422539959
  C   3.32875110588529     -3.09230842710261      0.31022552081415
  N   3.18559848028312     -1.77916117497480      0.76255764682510
  N   4.47425915096400     -1.12729976527752      0.75554235076475
  C   4.64105065908414     -0.48054559434070     -0.32529099241455
  N   3.64064785460826     -0.31024092245605     -1.26884859726417
  H   -1.14300458371316     -0.94976631274222      3.22465721195553
  H   -0.38736869361037     -2.55924401863893     -0.33505139572373
  H   0.24959604541902     -3.05311396696956     -2.42465648495429
  H   4.27116539794611     -3.50514518463332      0.66112589027042
  H   5.59262446759575     -0.00007276144709     -0.51642710112892
  H   3.84994435508629      0.15393072193332     -2.13776540447914
