23
Coordinates from ORCA-job 19351optt
  Br  1.05924793766315     -0.84110747217025     -0.61930356384425
  C   2.83244914287991     -0.36626002021411     -0.29101478418489
  C   3.26345822570487      0.89138895972266     -0.17324500653154
  S   2.39666893512110      2.39982550583448     -0.24239652794755
  C   3.93947037581553      3.19717373121738      0.09579651205556
  N   3.96173189672283      4.55846950741917      0.16996953043600
  C   5.13274831707528      5.31236032388601      0.26726945066173
  O   5.10115328725923      6.50630086634924      0.32176142999308
  N   4.98396668918328      2.46484090801058      0.24668376984095
  C   4.66992644092430      1.13128870559518      0.08632874273316
  C   5.53673007435492      0.09038638943391      0.14798137581066
  N   6.90633247636503      0.24842854366953      0.36830138154689
  C   7.76145515465262      1.03484275562162     -0.38799430890977
  N   7.51419770031481      1.73596328548120     -1.40737728559179
  C   5.03245960594234     -1.27537722481267     -0.01857798555999
  N   5.66384544117238     -2.36422600267796     -0.01069342888151
  O   3.65605318139272     -1.40760827984807     -0.19052389695395
  H   3.10085450875038      5.08368065251332      0.10375003248337
  H   6.03876502282226      4.69600670724235      0.27709778487303
  H   7.32545402489866     -0.30902396887520      1.09609598926445
  H   8.77976892681313      0.99686453288212     -0.00430944201571
  H   6.53242647199098      1.70004881675945     -1.67639776370810
  H   6.66183616218019     -2.20426722303997      0.07979799443018
