26
Coordinates from ORCA-job 19367optt
  Br  1.00744207242155     -0.16207170934927     -0.20934070982882
  C   2.86276966105402      0.03684016195587     -0.12584803204301
  C   3.65797570104596     -1.04200634298487     -0.17835626107172
  S   3.26466326204921     -2.73305908644103     -0.31228531399893
  C   4.98047241693186     -3.06341518656575     -0.29067176688351
  N   5.76349164055589     -2.06255604281257     -0.19776300879116
  N   5.03733944442022     -0.90957648808883     -0.13012885192861
  C   5.60235377001463      0.34856785863644     -0.04390724328817
  C   7.09768862335182      0.41774863976109     -0.08647046135289
  C   7.59531506304842      0.27234585577626     -1.52339095979542
  N   9.04837768858576      0.26765683941469     -1.54924640931628
  C   9.55847276501490      0.17843250351829     -2.90658893224549
  C   11.01592536583519      0.03188688686119     -2.90809806435984
  N   12.15160684530094     -0.11272006690355     -2.90595965868942
  N   4.88264548254188      1.40172230760315      0.01527496366710
  C   3.46999192882339      1.36472051281529      0.00077230357090
  N   2.75682979211659      2.41107981007900      0.08558350085624
  H   5.36112706929305     -4.07136711732618     -0.35514295782040
  H   7.52333906583196     -0.37616717116178      0.52929206853293
  H   7.39900626678835      1.38311626481109      0.31180196871756
  H   7.24593202610240      1.12771869716447     -2.10742169166223
  H   7.16716926322763     -0.63407906034189     -1.97637480963703
  H   9.40641146160781     -0.50387796730628     -0.99616657452600
  H   9.30510227982387      1.09523305690203     -3.44369706267231
  H   9.13846576696877     -0.66053116179304     -3.47989178638249
  H   3.36408527724386      3.22435800577619      0.16802575094900
