21
Coordinates from ORCA-job 19364optt
  Br  1.63017089999116     -0.64646971203434      0.77737755026518
  C   3.44636693598480     -0.46555541590873      0.32398195190074
  C   3.98521710325359      0.79825737581240      0.20424538815600
  S   3.15069646713060      2.30375644814702      0.41029428175166
  C   4.64240628617223      3.13251130030516      0.05604073027038
  N   5.65765616178322      2.39850376791992     -0.18834415201638
  N   5.31592684815217      1.09217723294889     -0.10980029136111
  C   6.16180296224833      0.02171671136336     -0.31533882059198
  C   5.59046519031821     -1.16225661638808     -0.19800208203910
  C   4.28859585292101     -1.60655200852553      0.10779157780685
  C   4.32618523275903     -2.98079228895793      0.09531065357308
  C   5.70091965943304     -3.47801114227578     -0.22420117680516
  N   6.15774051482092     -4.65472091051223     -0.34344966330838
  C   6.53575783824600     -2.22168416096581     -0.40171429997996
  N   7.71793229918507     -1.78690954164341     -0.64387858680397
  C   7.60515507757239     -0.32102267467991     -0.61191031504237
  N   8.55083526693479      0.48132734704472     -0.78732424619745
  H   4.70341226115267      4.20937259574488      0.04568624458540
  H   3.50330770219312     -3.65270237393790      0.28808015452348
  H   5.42472711737853     -5.34763532654717     -0.18732838347847
  H   9.41072232236904     -0.04431060690953     -0.95751651520842
