18
Coordinates from ORCA-job 19373optt
  Br  0.95297455999999      0.35124065242918      0.49840499085308
  C   2.78977670393908      0.21372383633856      0.22038288753690
  C   3.57668240048425      1.28777140803808      0.11360660124847
  S   3.11431958094906      2.97273039358819      0.15950988614705
  C   4.79692072271785      3.37894886972473     -0.04358976716867
  N   5.62221070733832      2.41580826511868     -0.13239280612311
  N   4.95942972590912      1.21834028905706     -0.05835976531928
  C   5.64762894660262      0.03040071856698      0.08982134290198
  N   7.00818993792822      0.16355658945374      0.10822502427976
  C   7.89845362598774     -0.90523224443833      0.15107564678580
  O   9.08162215574447     -0.72878312909594      0.16056373842188
  N   5.07224416168013     -1.10183379252875      0.23747135063678
  S   3.49090905125356     -1.37767655466594     -0.04686564139219
  O   3.33798813108266     -1.69745538111180     -1.43023476128276
  O   2.99577456929246     -2.27445186507301      0.94140137727394
  H   5.12722535542543      4.40582665336581     -0.08918405789053
  H   7.40106643689491      1.09483922450746      0.06033709242371
  H   7.40358322677005     -1.88175393327471      0.17482686066721
