19
Coordinates from ORCA-job 19387optt
  Br  1.01520756576311      0.42420478393134      0.04474913776063
  C   2.84467331165067      0.08257629226966      0.04289913302586
  C   3.38039619378247     -1.14283147634748      0.04105365715398
  S   2.63056551844982     -2.69815697868942      0.04100811551626
  C   4.29322995707430     -3.47001534009493      0.03971620302737
  N   4.51605353678057     -4.70531072461059      0.04051626079242
  N   5.29973058786915     -2.50406464961978      0.03822700701500
  C   4.82850354796692     -1.31547592450548      0.03921767788388
  C   5.61705309132287     -0.08747309810769      0.03908880752714
  C   4.93189240960077      1.12713502034673      0.04235663397085
  O   3.58002989711446      1.21535743981242      0.04381496070944
  C   5.65062866621290      2.32956197879770      0.04467317806685
  Br  4.72387883995289      3.95270671784676      0.05220421325475
  C   7.02823741513985      2.24149130067860      0.04173886018749
  Br  8.14048816920484      3.74978212659053      0.04347581411306
  C   7.63098493494088      0.97281658524398      0.03747200191591
  N   6.95119508844567     -0.14671055349258      0.03663451631150
  H   3.66590507707954     -5.26211774139138      0.04218606253123
  H   8.71234619164825      0.90252424134162      0.03496775923637
