19
Coordinates from ORCA-job 19397optt
  Br  1.29786201713979      0.00099437861961     -0.39708996706626
  C   3.16185489701732     -0.06252527077238     -0.17523867980399
  C   3.79476686764577     -1.25606473152006     -0.11687534927488
  S   3.21788129351716     -2.87644633456962     -0.20782409707691
  C   4.94398077068327     -3.49472004179336     -0.01172010366893
  N   5.26133629784015     -4.71004434969325      0.00907168475224
  N   5.83570695687134     -2.44523309382982      0.10859116296944
  C   5.23177933231922     -1.30997254592556      0.05149934653457
  N   5.88388268419804     -0.11722892440048      0.14448529195581
  C   5.24034236109564      1.08150308339233      0.08930486297001
  C   3.89940980323248      1.16870707674356     -0.07091939017741
  S   3.05246603701135      2.70202863054194     -0.15588200591458
  C   4.35207105453665      3.87667973566790     -0.01628839179708
  O   4.11192579460994      5.04195424795841     -0.06845541252377
  C   5.81629878475189      3.43415635532837      0.18563693778880
  O   6.68620752127057      4.21939532909838      0.31255988554759
  O   6.11650824989783      2.10028347592586      0.21894103939567
  H   4.46676848456865     -5.33325658076146     -0.09527069706590
  H   6.88895079179290     -0.12421044001036      0.26747388245557
