23
Coordinates from ORCA-job 19390optt
  Br  0.58244935533259      0.27544182423924      0.00907229700119
  C   2.46153875584155      0.17194011838760      0.00447506973834
  C   3.22366342271343      1.31946746793755     -0.01200020328125
  S   2.65985110730648      2.97447110740389     -0.03788084917089
  C   4.33367802221166      3.59487934671326     -0.05542458824591
  N   4.73835348855970      4.79006947535047     -0.08051600676999
  N   5.19387130828271      2.51854046690977     -0.03627300507128
  C   4.63219359574704      1.26017225184633     -0.01390876002325
  C   5.31047799556269      0.05340178061159      0.00110183475551
  C   4.50603124672897     -1.07122395844837      0.01355376266274
  C   3.10834263857433     -1.06265681074694      0.01816650568391
  C   2.69697905489696     -2.44265427656979      0.04748951497239
  C   3.84580090209433     -3.14317358922558      0.04510194743555
  O   4.05503462100758     -4.46585662473374     -0.01268680988238
  C   5.09116430220946     -5.00080115117055      0.72619633192207
  N   5.45939012684988     -6.18516889347418      0.61515409843291
  O   4.95743819443900     -2.35799597827830      0.02438284613854
  H   3.98317619592129      5.46589958885860     -0.09151785700709
  H   6.18616740487409      2.69377177876951     -0.04446424658927
  H   6.38916149240215     -0.01184346302594     -0.00279532451741
  H   1.70012359634174     -2.84545703684665      0.06299374188849
  H   5.54808437392920     -4.30182665007183      1.42079406368646
  H   4.92002879817311     -6.68539677443594     -0.09201436375938
