23
Coordinates from ORCA-job 19408optt
  Br  1.69546295074620     -2.05141229556759     -0.14276013204988
  C   2.59547292326710     -0.40760810818083     -0.32713120603541
  C   2.26571080473173      0.71421766457617      0.36551416558235
  S   1.36401457736345      0.52972129495768      1.88129032435483
  C   -0.22192810488005      1.24668211677921      1.40137031297110
  N   -1.29536526397762      0.61832509742265      1.23809420526364
  N   -0.08125188096089      2.60113053518310      1.15938522769301
  C   -0.49032700017526      3.11988805905705     -0.06581908018426
  C   0.32572193133170      3.88991881681151     -0.77637101757119
  C   1.71569013595036      4.23826956520809     -0.38279326887422
  O   2.05626578774727      5.40343508693345     -0.45119025079440
  C   2.81104076899297      3.25244231974532     -0.14564556024236
  C   3.04356899574781      1.92415823296292     -0.01319179833098
  N   4.37230538324417      1.52996906043762     -0.26956576204782
  N   4.69812208740885      0.45464913457906     -0.96313791642425
  C   3.79292556669793     -0.45349633034232     -1.11782733373754
  H   -1.17429027498830     -0.38057108983246      1.37578783712965
  H   0.79044652034840      2.97946778230971      1.50201070639450
  H   -1.49684184565257      2.86527688839796     -0.36810093655262
  H   -0.03473096299480      4.41277768413508     -1.65161890865921
  H   3.72867862135095      3.80931478059001     -0.32406242872496
  H   5.09122140213500      2.23798936652913     -0.25531279904266
  H   4.05008687656559     -1.31854566269254     -1.70992438011733
