24
Coordinates from ORCA-job 19405optt
  Br  1.13854694324679      0.48223917198525     -0.56905567194864
  C   2.95934470873159      0.25319951176010     -0.14638875349922
  C   3.52493438122234     -0.96349259563915     -0.07193081131979
  S   2.56305024465948     -2.39653684053169     -0.43203037856482
  C   3.80956395725054     -3.68065629188904     -0.42196044268820
  N   3.70436803826048     -4.71326694522454     -1.13604001893448
  N   4.85693894202362     -3.58241107834338      0.49796536870554
  C   5.34252872172334     -2.45136987878584      0.80512009763288
  C   4.90725404961936     -1.12646280264259      0.34017627444485
  C   5.81322752396430     -0.11218571394140      0.39578614241892
  N   7.14164625858038     -0.38558328261052      0.73210755892265
  C   7.97499003334628     -1.13447932569639     -0.21577634808316
  C   8.34668307385848     -0.33905314103654     -1.39037708614817
  C   8.62685494844658      0.35736390142960     -2.32348533697971
  C   5.47583961240776      1.29928042921125      0.10172440661784
  N   6.28213520079346      2.25592689900703     -0.09628874518148
  S   3.76916613812069      1.75993859456137      0.12151757876928
  H   2.92063255164472     -4.65093252072952     -1.78278441320068
  H   6.16963048620052     -2.43936817635279      1.51186440930564
  H   7.62687492755093      0.43249362171398      1.07459748799626
  H   7.43851774166560     -2.02936782253124     -0.53127223543648
  H   8.87187399676238     -1.46787804051633      0.30719701026511
  H   8.87556696588567      0.96488614424477     -3.16140768776095
  H   7.25583055403458      1.95671618255763     -0.09125840533318
