24
Coordinates from ORCA-job 19401optt
  Br  0.83515586686049     -0.12195060277256      0.24641854586173
  C   2.69990232806849     -0.05502697789335      0.06077596515485
  C   3.34707409305517      1.11558199568798     -0.09657235041633
  S   2.81922860349940      2.75445495723676     -0.17701482436265
  C   4.56364288731793      3.29027973549788     -0.38102851531554
  N   4.93018665394085      4.48591372717102     -0.50680518052768
  N   5.42932478158320      2.20667482390441     -0.37791935282284
  C   4.79142886331245      1.10895606101140     -0.23361839110549
  O   5.44898423889488     -0.05901905361471     -0.20949221909633
  C   4.78445549783208     -1.23622144977997     -0.03927492979014
  C   5.72619240199769     -2.39164313194271     -0.00416967520116
  C   6.61377285403566     -2.36147292644366      1.23808116187223
  C   5.84995004559643     -2.72202881071888      2.49286127822152
  O   4.73015831587170     -3.16264010960652      2.47546380182261
  C   6.57306147452740     -2.51599642307270      3.74282761757033
  C   7.19758115288900     -2.32698020855647      4.74705607700676
  C   3.45049338289238     -1.27724087338526      0.09806243961706
  H   4.15442535528107      5.14134133502084     -0.48504259555452
  H   6.35445877125300     -2.35406925230843     -0.89613926230248
  H   5.14810226417808     -3.31349111406250     -0.02552508850434
  H   7.08164954461318     -1.38381749118252      1.37530939422466
  H   7.43511647211580     -3.07817862699547      1.14643164379836
  H   7.73716386511158     -2.16183202948154      5.65015053486928
  H   2.96149028527204     -2.22459355371303      0.26316392498010
