21
Coordinates from ORCA-job 19406optt
  Br  1.04403357596043     -0.22799532919731     -0.58913990139962
  C   2.89793607722565     -0.07505966963250     -0.32925328307371
  C   3.56332020008379      1.13759640476730     -0.31761079798458
  S   2.67389882907915      2.61908030489021     -0.56042144567369
  C   3.86082612564541      3.84810459878299     -0.01350250530040
  N   3.46771203889785      4.97668752627651      0.38945311972894
  N   5.22175894309162      3.60165806054984     -0.12589666325209
  C   5.71898542846528      2.42605318809966     -0.17323057732364
  C   7.15094634262052      2.32802020871310     -0.27906854377125
  C   8.34268763551873      2.27784625995354     -0.37474733645381
  C   4.97460225611232      1.14391625456651     -0.13103257597809
  N   5.69926671239384      0.05621864815701      0.05201447229080
  C   5.05239981057238     -1.10415366017996      0.05708274103268
  C   3.66202318571018     -1.21840026372702     -0.13938149393795
  N   3.37987719551629     -2.53463643722480     -0.08637771702160
  N   4.48651131314885     -3.28003548962474      0.13270631653731
  C   5.49434077367785     -2.45484185258475      0.22140067315433
  H   2.45377610568288      5.02944253106161      0.46257658554869
  H   9.40259713931035      2.23251811991020     -0.45796049082591
  H   2.48516867136703     -2.98361783835239     -0.18648416659753
  H   6.49333163991954     -2.81940156520499      0.39487359030111
