24
Coordinates from ORCA-job 19407optt
  Br  1.70114599689090     -1.92915057031135      0.47204608315183
  C   3.16633224638335     -0.77495049618971      0.21903224013402
  C   3.17517908344157      0.50327450262403      0.67163914113544
  S   1.82321128116888      1.17406791690239      1.57322939145075
  C   1.43054410718158      2.43975832824424      0.32219525764199
  N   0.51124276421919      2.32801345737137     -0.52476286112779
  N   2.17510692369739      3.60053463317285      0.43932752143416
  C   3.43803427069192      3.65591665136096      0.41874490655955
  C   4.49359137281413      2.63547606883415      0.22709459050272
  C   5.77346791141212      3.25572550275091     -0.29408997286256
  C   6.23945514896187      2.72524323447278     -1.64128963691064
  O   5.80710876383423      1.75865091182547     -2.19529859088203
  C   4.38200113036641      1.29550925907557      0.39647898890238
  C   5.58019378404304      0.41900014896940      0.25171373568829
  N   6.71322668099875      0.55554111523625      0.80026287330512
  C   5.32958883338052     -0.82548373014852     -0.50755588520948
  N   4.18952194487185     -1.38814253580342     -0.50147151280512
  H   0.05545279217035      1.42065468651955     -0.45875715709838
  H   3.84452763619811      4.65906281251292      0.55358994366782
  H   6.63167078620339      3.17843072973930      0.37694117388285
  H   5.63572209078398      4.33089290212882     -0.43235585053328
  H   7.04844915316666      3.32391020540725     -2.09835976623735
  H   6.73332620006129      1.36590265273012      1.42078739076195
  H   6.16089909705844     -1.29583838742535     -1.02314200455224
