21
Coordinates from ORCA-job 19404optt
  Br  1.25115619834698     -0.45019551451211      0.21622032714229
  C   3.08564608994788     -0.14099725649601      0.15039847487157
  C   3.64139349013606      1.09588675153222      0.24375442697049
  S   2.63478782035401      2.52365201942370      0.39840280033269
  C   3.83629145534707      3.74419137116270     -0.14401611352403
  N   3.52444842157603      4.74489142577401     -0.83738678315581
  N   5.13107719740906      3.61228915861646      0.36081903360744
  C   5.69373710778237      2.48540187421753      0.50333153613867
  C   5.06760724172963      1.17444376823328      0.21260985636837
  C   5.81468650109540      0.04053097565716     -0.00448884273171
  C   7.29874265576767      0.03041207998643     -0.15721473447230
  O   7.95248541072165      1.06021329984837     -0.21720213659357
  C   7.86457248986155     -1.29829128892520     -0.25294377434013
  C   7.06928196149239     -2.39103209622808     -0.28902579424477
  N   5.69687665130335     -2.38581368393771     -0.20870392175243
  C   5.15538954606699     -1.23483690693331     -0.07998211103522
  O   3.78763877182357     -1.24978093698313      0.02344303427409
  H   2.55965404023489      4.70422995345992     -1.15872743614586
  H   6.70231073256743      2.46200273232701      0.89583684333876
  H   8.93875777613649     -1.38038880536359     -0.33510669124835
  H   7.50345844029947     -3.37780892085967     -0.39601799380020
