23
Coordinates from ORCA-job 19418optt
  Br  2.65958012451920     -2.06725018784621      0.89557836569426
  C   3.12431242483195     -0.39501944855744      0.16938395967003
  C   2.50147887687869      0.77524673232339      0.41571240921082
  S   1.38457640476117      0.94911820527859      1.77222220066510
  C   -0.13437609704876      1.44277478887389      0.90300615221212
  N   -0.65628430765720      0.81540372843834     -0.05558699238342
  N   -0.63991962955888      2.68153827049639      1.32001440639507
  C   -0.86528149219934      3.62351938585726      0.23627454222727
  N   -1.96271251470261      3.94256677478601     -0.25761938348858
  C   0.48499960956680      4.16276121992684     -0.23188699503771
  O   0.90592409064389      5.24591488711811      0.06834953301434
  N   1.22578547101056      3.17168728151122     -0.84271985023712
  C   2.61079180538707      3.05146229055278     -0.70460019828777
  C   3.16071636901479      1.92346866820029     -0.23939720748446
  N   4.58368267842584      1.83084861140540     -0.34604493710270
  N   5.10552407869848      0.73779245821825     -0.52918398870979
  N   4.26005760301654     -0.38106956976537     -0.59882014597385
  H   -0.17038295617151     -0.05790089914900     -0.24663918595309
  H   -0.04224811576468      3.10105211011852      2.02400978353210
  H   -2.72517704548090      3.45254220131594      0.21316884305743
  H   0.72617746762593      2.31900357930673     -1.05270352985362
  H   3.22956394769935      3.89017274507660     -0.99463735625485
  H   4.79621120650359     -1.23163383348655     -0.67688042491161
