23
Coordinates from ORCA-job 19414optt
  Br  1.43664390240338      0.30317750412531      0.27909491188544
  C   3.28591018103136      0.10954484027321      0.09975101329201
  C   3.86135700731974     -1.12097907675580     -0.02117411170391
  S   2.86128435248309     -2.54727651247547     -0.01232525966925
  C   4.03516840524346     -3.88943859013623     -0.25533250201746
  N   3.59014572282051     -5.06527452894668     -0.36402360532657
  N   5.37376340752225     -3.63059287653670     -0.30051371501479
  C   5.91344152887666     -2.46914334797589     -0.25164817819480
  N   7.24524622120898     -2.36377141019846     -0.30250449807668
  C   8.06429606564079     -3.56072489151581     -0.40405358923896
  C   9.47584672633982     -3.19428448212270     -0.44098869833516
  C   10.63052600084912     -2.88409615431243     -0.47062231510907
  N   5.22980616020330     -1.22423611965746     -0.14527430825011
  N   6.03493551295983     -0.14171878661888     -0.15196309223159
  C   5.52237929903387      1.02471696062718     -0.04327155219501
  C   4.08629672521441      1.31565964591783      0.09921884015515
  O   3.67010934146277      2.44955016780613      0.20250540064325
  H   2.57526686698806     -5.11229035866635     -0.31607712223745
  H   7.66955189988175     -1.45131614963714     -0.27790026929961
  H   7.79032671100619     -4.12027433201632     -1.30106986020645
  H   7.86085746229653     -4.21594696481234      0.44556895605852
  H   11.66030101188940     -2.61691110244041     -0.49632769128913
  H   6.21053948732460      1.86162656607545     -0.05506875363836
