24
Coordinates from ORCA-job 19413optt
  Br  1.43149686584607      0.08113947046837      1.36627079199997
  C   3.20054251070963     -0.02938753335329      0.72696403048762
  C   3.73049497058700     -1.22506912140802      0.37687733853008
  S   2.81005064501211     -2.69888983849979      0.51823725188124
  C   3.86071199172788     -3.82024225609549     -0.42276414064839
  N   3.37174876055615     -4.79991537162447     -1.04566502476440
  N   5.21433123900706     -3.63838440609172     -0.29720140590600
  C   5.74752810645608     -2.49035001762346     -0.12367525921922
  N   7.07629093416207     -2.40803351101740      0.07340059330149
  C   7.88528049496871     -3.61726739846548      0.09567388970535
  C   9.30117336144198     -3.26657577283185      0.10992601223681
  C   10.45777320384611     -2.96275587867131      0.13020608568720
  N   5.04328467605281     -1.25617167849088     -0.10618740972426
  C   5.67524647604133     -0.03699197498155     -0.48154008899391
  N   6.68342762657844      0.10374541596629     -1.23896560840677
  C   5.04875782320206      1.14448679085217      0.11632475150660
  N   3.89590986051565      1.14272762558302      0.66796152891073
  H   2.35502562865204     -4.79543788589276     -1.03585287325151
  H   7.51147996636911     -1.52727978774170      0.29588647506009
  H   7.64350610658747     -4.21629473413509     -0.78408055946502
  H   7.63403216730369     -4.22640352669381      0.96766853557340
  H   11.48886046331542     -2.69944921775433      0.14158853014466
  H   7.01175964338674     -0.76106841824326     -1.65998938909831
  H   5.61028647767429      2.06886902674585      0.04193594445254
