20
Coordinates from ORCA-job 19412optt
  Br  1.18741106675855     -0.17298890934672     -0.20365003990639
  C   3.04285964918929      0.14392864879336     -0.25449153436333
  C   3.53703674184325      1.37317590928417     -0.00116346759462
  S   2.47373242628888      2.63186084151281      0.60879252211380
  C   3.56443407055116      4.04051844835709      0.74344809257771
  N   3.55037643756436      4.67303000848828      1.82825230651133
  N   4.18125367685283      4.44955542951111     -0.44451609244515
  C   5.06554925063283      3.72854132031651     -0.98653364607177
  N   5.65131916649739      2.56179758190885     -0.50262322058263
  C   5.01093381534377      1.54873300880153     -0.08824328264939
  C   5.90137608872165      0.32543459528361      0.18659327825190
  O   7.01673237595943      0.43075986866352      0.60995727750045
  C   5.25761761200379     -0.93074956764688     -0.21038613263897
  C   3.90511634156675     -1.00833043526557     -0.46001801896642
  C   3.56334707589685     -2.33986425271107     -0.81292834909500
  N   4.56056660703208     -3.18995655515969     -0.83329243910928
  S   5.96095551625168     -2.45904767434147     -0.41954290142277
  H   4.08638095349932      5.53847683420076      1.73870381096458
  H   5.51201987000062      4.06895412656789     -1.91731890488960
  H   2.56598125754545     -2.68282922721813     -1.05203925818445
