22
Coordinates from ORCA-job 19427optt
  Br  4.72003022421400     -3.81294202216577     -2.27698408611093
  C   5.17140103229657     -3.27117638710467     -0.53966954731469
  C   5.82432651456140     -4.01741334107391      0.36728595127206
  S   5.82777730429267     -3.22398445380135      1.95149508878303
  C   6.55906154741194     -1.76450111020075      1.15367613838161
  N   5.93453087844080     -1.23135689444330      0.17132484253184
  O   4.80220109447874     -2.01267015494552     -0.24939152355434
  N   7.91952868918219     -1.53547398072313      1.24805238819777
  C   8.59219096243857     -2.36638350269854      1.95996646395490
  C   9.64404665499148     -3.09550755308868      1.27346977408216
  C   9.53756682287900     -4.41733301926764      1.47234255318400
  C   9.73467518030404     -5.45414424438817      0.41735939517619
  N   10.44483241926039     -6.49225688843184      0.49042028090325
  N   9.04402237633695     -5.16923417791549     -0.78770639818592
  C   7.79640492104270     -5.03403580981176     -0.91044337871814
  C   6.79207750066967     -5.15189240826966      0.23031619455990
  O   6.92725669662778     -5.98152317700085      1.08870691064439
  H   8.21496613868660     -2.81496813337965      2.88002046286701
  H   10.04992866474998     -2.67156462804488      0.36346227524705
  H   9.05726476301660     -4.78721478541933      2.37443397006006
  H   10.90826825853045     -6.55194300840787      1.39502961891555
  H   7.40964135558737     -4.73748031941719     -1.88316737487675
