20
Coordinates from ORCA-job 19428optt
  Br  1.07365238959062      1.44250195049697      0.27180684062281
  C   1.79855787177053      0.29466634407772      1.56085937516902
  C   2.59982405863988     -0.74221973555504      1.30213201735560
  S   3.40181573304530     -1.53922898815540      2.65894012977169
  C   3.34173718702267     -0.25155462813413      3.90054405773750
  N   4.26062196041003     -0.19247253135605      4.74344818131263
  O   2.24017812113073      0.57424556555005      3.93024142953540
  C   1.30859454338884      0.33118125622747      2.95512456338223
  C   0.10241989629244     -0.19498484973738      3.19813026531389
  N   -0.51333390298434     -0.66346407922045      2.04275875417547
  C   -1.20197245512933     -1.68939333694077      1.87978527893301
  O   -1.40063183748520     -2.11952042703113      0.58962146191799
  C   -0.33474372936991     -1.97536898691051     -0.25781005160674
  O   -0.45315177868323     -1.71932869873836     -1.40418178134959
  C   1.02502553470015     -2.42272872543631      0.35114630740197
  O   1.05381849864926     -3.28612329417809      1.16097395305495
  S   2.57489530536740     -1.59754266517894     -0.24644696779897
  H   4.06888842074662      0.50821494671739      5.45902133891052
  H   -0.29509263754495     -0.33966764422757      4.19696673944786
  H   -1.67110317955751     -2.34221147226944      2.61293810671273
