22
Coordinates from ORCA-job 19421optt
  Br  1.53961687995574      0.41223379835012     -2.97257252563887
  C   2.60296037598410      0.47030481472794     -1.40540865491182
  C   3.54070136545708      1.43052542510451     -1.15983875678163
  S   3.22574129258348      3.13051549480825     -1.49691143981374
  C   1.98896126253352      3.13610042687573     -0.15878442756482
  N   2.29153287097561      3.49053309584503      1.00567575792444
  N   0.75544980533290      2.62954871478438     -0.60296394283862
  C   -0.13139400789034      1.73740369745103     -0.05748166375686
  O   -1.10416984061941      1.39341687854514     -0.68736423790206
  C   -0.03779205192310      1.08247931221466      1.31894525017578
  N   0.87444163593257      0.50623891310034      1.96318577989464
  C   2.23045475371714      0.36931948172638      1.77322412404535
  C   2.89170223959793     -0.23435870468157      0.78083082364681
  N   2.29371457271414     -0.47521074039971     -0.48916120052253
  S   4.64918474203289     -0.28229035525019      0.78172695425450
  C   4.74847278883907      1.14930576305931     -0.33362024477381
  O   5.75947107960113      1.77948991261362     -0.40904248573662
  H   1.49481677940577      3.44010141703780      1.64397628725575
  H   0.56411104739046      2.77119166782777     -1.58843527371984
  H   -1.04993688217854      0.98255896112552      1.70997084306860
  H   2.81017620827940      0.68089343132908      2.63646619973738
  H   2.00478308227843     -1.40030140619518     -0.78141716604203
