20
Coordinates from ORCA-job 19420optt
  Br  1.06508028195500      0.09980699789379      0.45699215808097
  C   2.92508176456559      0.08074959214814      0.25350475190404
  C   3.59527790391354     -1.07979821044348      0.12348758641873
  S   2.70132736020500     -2.58266416651928      0.08501161522267
  C   3.97417615818358     -3.68561182851912     -0.35185136594974
  N   5.22462339253646     -3.51595847381046     -0.30486601551635
  N   5.72150502039158     -2.30590832498460      0.12404323792450
  C   7.00873897747690     -2.41100546156879      0.73519360288071
  O   7.61747225539181     -3.42677141386570      0.77104420903667
  C   5.06559688602009     -1.09784635128669      0.00722562643778
  C   5.75777094736270      0.06438367707960     -0.19847069937850
  C   7.13271464089105      0.09425473444755     -0.57657840629001
  N   8.23148040837833      0.12220690850538     -0.90718583515150
  C   5.09560837130476      1.36952837183926     -0.08926780036944
  O   5.68153687497825      2.41117980780141     -0.22741315937037
  C   3.60716028315155      1.37652672397712      0.22975847113331
  N   2.99277691421177      2.45873842012258      0.43851877911423
  H   3.62265867925668     -4.65627418455540     -0.68267108600559
  H   7.31424406789519     -1.47522727545841      1.21288005686734
  H   3.65116881193013      3.23969045719710      0.34864427301054
