18
Coordinates from ORCA-job 19424optt
  Br  1.21357420112990     -1.38044035772497      0.01175907606032
  C   2.77189806675205     -0.80301302756762     -0.83281535745113
  C   3.35865498617896     -1.44079264937752     -1.86275099864323
  S   2.63537365746970     -2.97794216104837     -2.37549697288414
  C   3.24534443313722     -3.28444870972531     -4.02444616771629
  N   3.43558330216567     -4.41422279780371     -4.51671630784848
  N   3.30854826467836     -2.11862642311329     -4.87047201296556
  N   4.17818635108070     -1.29203602333184     -4.62960446611619
  C   5.14682255809470     -1.47964379444150     -3.56975642911167
  O   6.27980028066978     -1.73263349080289     -3.78933596878557
  N   4.63520251167306     -1.08019330474538     -2.30601088407875
  N   5.58046369251313     -0.52043326620907     -1.49963232247943
  C   5.22411180957634      0.15770394100658     -0.49421731908800
  S   3.54877302743827      0.61415642020163     -0.14217635501648
  O   3.35380857380116      0.63497147626841      1.27232825696765
  O   3.23801826525541      1.75838157443188     -0.94205395181032
  H   3.37180465876868     -5.16925802889258     -3.83588670974436
  H   5.98303135961687      0.56447062287558      0.16528489071168
