23
Coordinates from ORCA-job 19433optt
  Br  2.07855130575309      1.96627819871876      1.68007941292848
  C   3.08715432209315      0.71627448468342      0.69537120341711
  C   2.81418379219084     -0.61558591657179      0.70290536264235
  S   1.54597120613075     -1.35633437150768      1.68206948780095
  C   0.20045521867087     -1.38828472032154      0.45841328026566
  N   -0.14685699469859     -0.48409138454834     -0.32047178653737
  O   -0.57511020991463     -2.49996762102150      0.59573210681794
  C   -0.07487814942483     -3.76641393761166      0.59063872623338
  C   0.97149295595712     -4.24202489471491     -0.07568038404052
  S   1.94296255385221     -3.26986380302164     -1.17639025178777
  C   3.29742503862694     -2.88808018316094     -0.07644084201221
  N   3.89360599429052     -3.75286741864779      0.59345144937369
  N   3.61147039840231     -1.46785590365524     -0.04288073470720
  C   4.66217784545644     -1.04954112440113     -0.88742807079993
  O   5.25483145463998     -1.85272948921285     -1.57191747723378
  C   4.92583086551401      0.37620572408363     -0.83284437329119
  C   4.17580096881933      1.20852743618044     -0.08572423248973
  H   0.42082961947434      0.35444890638320     -0.22615703958370
  H   -0.69134147936879     -4.41794338327683      1.19646541790726
  H   1.21851079551761     -5.28742849343631      0.04067698180655
  H   4.61722101381863     -3.34488905643710      1.18614099593664
  H   5.75000058386445      0.72779013781965     -1.43677520805355
  H   4.38371090033421      2.27037681367815     -0.06723402459306
