23
Coordinates from ORCA-job 19436optt
  Br  3.05729855315955     -2.09490299208828     -1.99158738797207
  C   3.94296630993018     -0.90342605116749     -0.81630149171949
  C   3.77039877840070     -0.94827580941002      0.51174422420662
  S   4.62085931345352      0.31787980955663      1.42977879707265
  C   6.23262276727830     -0.21432090775717      0.84371701695587
  N   6.50292545370521     -0.27164506886303     -0.39189646180609
  S   5.25791584676945     -0.00082163414530     -1.52053841124030
  C   7.18343487423635     -0.84703930833337      1.84810551913115
  N   8.41386407923420     -0.61031797108969      1.96743010151078
  C   6.44958889462179     -1.92757483501686      2.56151281211947
  C   6.68408717299580     -3.22641221868348      2.39381078433721
  C   5.61701148594538     -4.21919423801031      2.70180903527788
  N   4.45333682036101     -4.15936757424718      2.18653864669506
  C   4.23215610476520     -3.16487406067126      1.23629638489241
  C   3.39894126623857     -2.11418869874224      1.35374436376654
  C   2.56184869775285     -1.92200561613196      2.48970893186844
  C   1.84942198078315     -1.74047853690957      3.43748452801381
  H   8.71177915654876      0.11755071171519      1.31582292992007
  H   5.53021597411308     -1.62623480295397      3.05119972843644
  H   7.59514275460749     -3.57569873661154      1.91502253875503
  H   5.82965108732644     -5.05023076283655      3.37141063857033
  H   4.86795618371612     -3.21265304193869      0.35562244464728
  H   1.20957644405681     -1.58876765566380      4.27356432656089
