22
Coordinates from ORCA-job 19437optt
  Br  3.20822620026477     -3.97255740301048     -2.33002038182856
  C   4.63660697746482     -2.97163880640901     -1.61234256779956
  C   5.85720221126718     -3.49599710508703     -1.42043496596623
  S   7.08952575831791     -2.44513345069141     -0.72453443632731
  C   6.85979776163510     -1.13158565778119     -1.92799693237247
  N   5.73556162676902     -0.64035429921077     -2.21302671075252
  S   4.33936318992680     -1.26089324852600     -1.45949488006928
  C   8.08447503832928     -0.71267156551720     -2.69437788131517
  N   9.18634717769627     -0.40213743420919     -2.17423613138234
  C   7.95812334378013     -0.68998293148385     -4.20552393817058
  N   8.53660196984308      0.18536342651452     -4.88111293887456
  O   7.11432155835519     -1.62426826092076     -4.76670060911487
  C   6.97534345659248     -2.85278916973513     -4.19710558611463
  C   7.96250452290535     -3.52458997318528     -3.61249425742479
  C   7.79076900122157     -4.81580321154514     -2.91736551309517
  N   8.58997091334239     -5.79065491547984     -2.96428948100455
  S   6.32857204996802     -5.12062656633955     -1.91573397329175
  H   9.15427304175840     -0.44429226483438     -1.15324418289579
  H   8.35888865187356      0.05914482335517     -5.87760765590194
  H   5.96019106265964     -3.22563021178176     -4.27361068611410
  H   8.97166766565693     -3.12495841757035     -3.61820292311478
  H   9.35766682037202     -5.60894335655133     -3.61154336706902
