21
Coordinates from ORCA-job 19434optt
  Br  4.80437453268119     -3.38882781069864     -0.23023621461356
  C   4.27887705009160     -1.89157089692039      0.77371457602620
  C   4.08803499673753     -1.88021370929953      2.10735826783665
  S   4.91270460952752     -3.06265005471511      3.12067658970671
  C   6.55477319111154     -2.61604494415897      2.49169581016962
  N   7.45747036714605     -3.40669400750032      2.15776469679455
  O   6.74500243029115     -1.26515888222010      2.53057706422865
  C   7.03923270209577     -0.43163070472810      1.47738789721598
  O   7.20202259785979      0.72250051766235      1.71028073596128
  N   7.22220322204058     -1.01119752359341      0.22287593706220
  C   6.44286837420610     -0.76535724187637     -0.74614484034741
  C   5.14585903143456     -0.05468588746083     -0.62489369296728
  C   4.17911853971599     -0.58371443092924      0.12030297894408
  O   3.07362135916879      0.14824668249731      0.49143391641873
  C   2.82324194567808      0.14081308850794      1.82720038425621
  C   3.37275080570759     -0.74722505857041      2.66538789889287
  H   7.14341391336704     -4.37327353016794      2.18419948690422
  H   6.76378627657316     -1.11294982956225     -1.72728949699037
  H   5.02855691963027      0.92287173706792     -1.07534850774815
  H   2.12823239550790      0.91706467931510      2.11038993749099
  H   3.20485473942778     -0.67530219264899      3.72866657475780
