22
Coordinates from ORCA-job 19441optt
  Br  1.08826852920210      0.11384074623721      0.34896126278658
  C   2.94992315389726      0.02461890960095      0.08199117893973
  C   3.65182896089461     -1.12593517363757      0.21305406915123
  S   2.89913994851972     -2.52162902250911      0.96363545171309
  C   3.46810369125973     -3.87839496493257     -0.01654607011235
  N   2.87144972490208     -4.97875819635833     -0.11200133089435
  S   4.96870580140519     -3.68810189165150     -0.91164897108286
  C   5.75553512797851     -2.29685939440144     -0.16521003230703
  C   7.10280023945348     -2.30844244209140     -0.01494673807161
  Br  8.08705307899230     -3.89271612695691     -0.26993535659794
  C   7.88950554432303     -1.09012578464334      0.27063967456655
  N   9.13529264128472     -1.01831702447957      0.53775464784001
  C   7.09494632201072      0.10899917707223      0.13345511145747
  C   5.74872406429426      0.09664422511061      0.02745986829928
  C   4.96819607122679      1.29747421878503     -0.12503780875209
  C   3.62804554958353      1.26676650768647     -0.15498350615973
  N   5.03682490339696     -1.11456045673661      0.00590115972245
  H   1.97049737281708     -4.99092003760313      0.36368635422677
  H   9.57048609085093     -1.93747314087943      0.56526428113764
  H   7.61843817730054      1.05426322975115      0.11098576947072
  H   5.51333260788602      2.22574892303459     -0.22393542953011
  H   3.04290239852039      2.16487771960267     -0.29054358580346
