21
Coordinates from ORCA-job 19445optt
  Br  2.62913060985536     -1.96551936317020      2.31007383547971
  C   3.04689192153353     -0.66435978551828      1.04303381833133
  C   2.34423034836425      0.45647730327685      0.82101224960991
  S   0.93581058488482      0.90258725715145      1.75932400216894
  C   -0.23340988837677      1.05840905080725      0.41831097512601
  N   -0.23752022601970      0.46481831561118     -0.68284454988098
  S   -1.50561306729770      2.30229515935655      0.71230140317904
  C   -0.76848128209474      3.63339634853343     -0.21510789792488
  N   0.43445845934191      3.92442786572780     -0.40539198993659
  C   1.57874544957460      3.43673711956200      0.22324670665276
  O   1.92570260569262      3.84871945403457      1.29640540978220
  C   2.43215923444601      2.53876079066044     -0.61246802872175
  C   2.80957845007099      1.31018421536093     -0.27521138338690
  O   3.66473532590478      0.66706018114253     -1.16346931855510
  C   4.54162635895539     -0.26641598298707     -0.73446575120941
  N   5.60411487686940     -0.57518369782817     -1.30084925796830
  O   4.18201275922408     -0.96720369072043      0.38747297565760
  H   0.52466180069393     -0.21229986355376     -0.76822842640242
  H   -1.53976166715615      4.24568253470472     -0.67964633687059
  H   2.79710934133148      2.94674680696709     -1.54687996333636
  H   5.76881800420188      0.01667998088112     -2.10961847179423
