20
Coordinates from ORCA-job 19443optt
  Br  1.11325271066951     -0.21981180157060      0.00285761258955
  C   2.96836063843622      0.08638377944745      0.01586308682386
  C   3.51982355517774      1.31874249356183     -0.15327142697223
  S   2.35677441545300      2.57161969134425     -0.65499609437878
  C   3.41253405479438      3.89407314857588     -0.21683847891957
  N   3.84675721844398      3.83625793911461      0.97386991358704
  S   5.54368036143371      4.08262856449385      0.96909846938515
  C   5.82129177578234      2.55695269551002      0.24068564318954
  C   5.01180752379595      1.52322940183240     -0.13391679891373
  C   5.86693347549201      0.33059058246228     -0.50473639709715
  O   6.97613298964352      0.42077344576493     -0.95640945855219
  C   5.24371999740711     -0.98241862590613     -0.18100990192609
  N   5.80414648624309     -2.11914812901019     -0.09334541112539
  C   4.71259734492335     -2.99917677841557      0.27466713522581
  N   4.82659200992651     -4.23517617042388      0.46864886146592
  N   3.47998377279871     -2.29837344482099      0.37953999702550
  C   3.79636860903424     -1.08395972474219      0.12639982547601
  H   3.83902010714710      4.50832114737284     -1.01307347038911
  H   6.88482571151333      2.36629387672770      0.12142334245275
  H   5.80239724188417     -4.50480209131849      0.33554355105311
