20
Coordinates from ORCA-job 19442optt
  Br  3.53026291581394     -0.20009543803515      2.71508239064557
  C   3.31688550661084      0.02185404473413      0.87534426810531
  C   2.18953816621568      0.41376255741960      0.24902313227021
  S   0.69866484391124      0.60905719375983      1.16887801591953
  C   0.93176567579066      2.33346708164222      1.66789500886025
  N   0.95288510126278      2.71274748557125      2.86255185581085
  S   1.18578650875379      3.52449501010467      0.36755084151004
  C   0.07278317405286      2.90514682677264     -0.83123185150778
  C   0.30951396284564      1.85776146355298     -1.70050301485573
  S   -1.10627562863847      1.62781060732162     -2.64235937922829
  N   -1.97882793434315      2.81478983231177     -1.91359694507291
  C   -1.24730773669926      3.39941855862039     -1.00506626282425
  N   1.43698386432426      1.15408319418547     -2.00439626809321
  C   2.27213228072189      0.61358524513717     -1.21440434358962
  N   3.42834612293391      0.09943582606437     -1.83458117815842
  C   4.40058893948336     -0.26742344640428     -1.13229208083005
  O   4.46141788571714     -0.26118124155052      0.22798444337018
  H   0.89998375054272      1.93208971621214      3.51678873950277
  H   -1.66166433998632      4.21582283402430     -0.42568121654123
  H   5.32653694068649     -0.64162735144458     -1.55098615529322
