28
Coordinates from ORCA-job 19457optt
  Br  4.00857485816499      2.71911052148567      2.69271234841896
  C   4.52517151737661      1.83283967796402      1.09557719918697
  C   3.35767720121720      1.50917185510199      0.25597311254531
  S   2.76339358787931      0.04219724136673     -0.01731950133410
  C   7.39171708554108      0.75351692755013     -0.87163147683421
  O   8.46310800513726      0.64356501621222     -1.27623465906606
  C   6.15460946501860      0.87366766615044     -0.42656711973688
  C   5.81126193440353      1.67577929068406      0.74209376423940
  C   6.91437093360276      2.43454457650618      1.43848964746262
  C   6.81247212649204      3.92129610930216      1.06435343319689
  O   6.76297745907097      4.76561124907012      1.91688000465344
  C   6.77243317836826      4.28984866326456     -0.41209560434407
  C   5.65322207090371      5.28608812783964     -0.73804036411722
  C   4.25444903507523      4.78021080175297     -0.38733711481292
  C   3.79208728568403      3.56671474488281     -1.22338476521546
  C   2.77467179526994      2.73396795481376     -0.46585817538921
  O   1.60599863287544      2.98799958080499     -0.42007384188406
  H   5.41615879382397      0.28480050208375     -0.95417628270272
  H   7.89633164422740      2.06367556004962      1.13248374818766
  H   6.84374588986654      2.35837936703290      2.52130202956342
  H   6.70214829894342      3.39722296820954     -1.03245822530270
  H   7.73950986343871      4.75101717774371     -0.63310784828135
  H   5.70988357572366      5.54078495173445     -1.79907759523549
  H   5.83874679802254      6.20093619066757     -0.17410251368138
  H   3.52781840558903      5.58174660256974     -0.52349887402747
  H   4.23512579314265      4.54294036628859      0.67662697617084
  H   4.64178465316194      2.93498754886344     -1.49115980529494
  H   3.31455011197907      3.90437876000413     -2.14336849636531
