19
Coordinates from ORCA-job 19454optt
  Br  1.19304307447300     -0.21254972844329     -0.31002350751839
  C   3.03175920248382      0.09104848304668     -0.18769439325295
  C   3.50800707544857      1.33323308123762      0.00913603129051
  S   2.55279705490250      2.77869558003990      0.23497293175060
  C   4.02103367362395      3.76523349900856      0.48003728684253
  O   4.02453660301181      4.92556425329006      0.74466146373538
  C   5.22351076267207      2.91172486769494      0.23628628393337
  C   6.42008057078506      3.47139330798578      0.02140411046934
  N   7.51714389492746      2.86718792731435     -0.59801982109862
  N   7.82596718252866      1.69152977154056     -0.47870873529687
  N   7.08088785334153      0.89829230462456      0.46763039976099
  C   5.77711015097673      0.54033308933952      0.11669151959806
  N   4.86812748774127      1.58049083597210      0.09836068943057
  C   5.34772056040539     -0.72853361218920     -0.10031827793477
  Br  6.55026314720126     -2.16615871000232     -0.08283807304565
  C   3.93151791537479     -1.06891908622896     -0.29252620194802
  O   3.53700318987282     -2.19630940506888     -0.48072249875391
  H   6.50633485434307      4.54122661603956      0.14929486183127
  H   7.63115574588618      0.05351692479845      0.57537593020659
