19
Coordinates from ORCA-job 19455optt
  Br  1.14997320652530      0.26452742623759      0.26307960658593
  C   2.99995481167114      0.03398196798495      0.18014865020809
  C   3.60769610175328     -1.16698871226047      0.17465072230544
  S   2.59929802359950     -2.60112816549674      0.22393997334804
  C   3.73763584757189     -3.93825459184521      0.00083085729054
  O   3.25332192146947     -5.03142326463134     -0.09410799519227
  C   5.18708198809236     -3.67632353600018      0.00637126156196
  Br  6.21051441937791     -5.24249636953414     -0.13458838544256
  C   5.79245526010527     -2.46525664734056      0.13096315577034
  N   7.17777267229581     -2.48075282565829      0.25175131998485
  C   7.91184847241669     -1.45399557592895      0.22354113049058
  S   7.44176920789937      0.20374032977670      0.02910016260266
  C   5.71267812667748      0.00583339970743      0.07368252688641
  C   5.00220563272502      1.29078001376177      0.02269769869783
  N   5.45615343136975      2.45679741454136     -0.10136821676169
  O   3.63639326593430      1.20443637703676      0.13490975308218
  C   5.06046747374079     -1.18959860127693      0.13476688858740
  H   8.98668975107266     -1.57341893817289      0.33664864172619
  H   6.46709038570190      2.49154029909917     -0.17301775173191
