22
Coordinates from ORCA-job 19465optt
  Br  1.13911029551774     -0.10633238923316     -0.36003403510479
  C   2.99518456869705     -0.09555420340251     -0.13276967517366
  C   3.74627571628253      1.02239262784105     -0.15873602171789
  S   3.22424061299164      2.65194191904024     -0.38794658566743
  C   4.96217343069509      3.26342970129767     -0.25988540536720
  O   5.21769987265482      4.42815813111473     -0.35026955856483
  C   5.83242607028796      2.12388306833533     -0.05638374407955
  C   5.18649683263537      0.93030228448768      0.00113612552613
  C   5.75383816477895     -0.37818271660747      0.19683154782213
  N   7.14108573837008     -0.51000722482528      0.33709665442060
  C   7.95767745095729     -1.08673442893003     -0.60568319024982
  N   7.68152622612841     -1.78582855490122     -1.62611422880938
  C   9.41921742077769     -0.80742125277238     -0.36060378755107
  O   9.79306392225975     -0.05684861365972      0.49556273044325
  C   4.91680674295623     -1.44885410674975      0.25629145996147
  Br  5.50090007223235     -3.18890359228970      0.62068048937905
  N   3.57237745443763     -1.32167240874061      0.06735409030769
  H   6.89868425172778      2.27448522836924      0.02142576270970
  H   7.61779173734734      0.14264308303628      0.94893792975527
  H   6.68033442761415     -1.91206435353075     -1.76743385206993
  H   10.09598187673497     -1.33117383524838     -1.05175824043157
  H   2.98910711391510     -2.14365836263126      0.10030153446183
