21
Coordinates from ORCA-job 19469optt
  Br  0.82049816173494      0.17928700909777     -0.05924167402235
  C   2.68548800272509     -0.03803373136357     -0.09417584005500
  C   3.46884170978719      1.06663908936084      0.00093546828613
  S   3.00150951354521      2.72078896530560      0.15332450470949
  C   4.77048939588388      3.26382739239736      0.19180543556578
  O   5.05219160810639      4.42348211610967      0.30097231188418
  C   5.61037814111087      2.10169131718046      0.07384104036895
  C   4.90704761459563      0.94035115835048     -0.02518016082229
  N   5.40116656390097     -0.32330768762554     -0.14530673206110
  C   4.63362310778912     -1.45343834715740     -0.21857578041042
  N   5.40705899972705     -2.59550408238196     -0.39971506610724
  C   5.19027799190539     -3.61281627403317      0.30312824983565
  O   5.94626707474748     -4.71143881713893      0.06155203265476
  C   5.70676187578735     -5.82773669481284      0.81453096554600
  O   4.89484587670907     -5.91192537334368      1.67330065512599
  C   3.26980324487069     -1.34466133577119     -0.20761181444794
  Br  2.17785490708440     -2.86242185428548     -0.44129378438099
  H   6.68538978835879      2.19672880732353      0.07140705587836
  H   6.39997290532596     -0.46446199051132     -0.20087545905138
  H   4.46163972081366     -3.71867193922269      1.10243864550669
  H   6.38789379549082     -6.61837772747795      0.48773994599675
