22
Coordinates from ORCA-job 19468optt
  Br  1.40843846720484      0.38405008377781      0.21822644283094
  C   3.25814481737069      0.23101341111119     -0.01895242939631
  C   3.83953582733997     -0.97351816111136      0.04015542494843
  S   3.08064777647823     -2.53256753189125      0.16293284324967
  C   4.71522156004682     -3.36012080691595      0.07316523582733
  O   4.81278593111165     -4.55169225466218      0.09389345356221
  C   5.76364912126552     -2.35699123594091      0.00310345531433
  C   5.29247999611822     -1.09206410962908      0.00865473161523
  N   6.00223669653306      0.06615774374202      0.01433849254666
  C   5.41701768965092      1.32182773866222      0.16754530354453
  C   6.10728841321292      2.42927597623045      0.43343632498692
  N   5.46906636316064      3.66609258112629      0.38792745312400
  C   4.26017305017843      3.86925981563112     -0.23457017039062
  N   3.67821180195821      4.96911309013022     -0.46097671334274
  C   3.51565697511099      2.60426552271835     -0.64602625398897
  O   2.52945376342944      2.63306308299753     -1.31286581877419
  N   4.03458490831173      1.40299250685167     -0.10851908222596
  H   6.80105865680898     -2.65489213408148     -0.01227786058905
  H   7.00645001978277      0.01937958578896      0.06915302959760
  H   7.17346653267082      2.41848282740720      0.59616312167707
  H   5.96381537415505      4.47757726055014      0.71948429813964
  H   4.22161625810002      5.76829500750701     -0.13699128225671
