25
Coordinates from ORCA-job 19478optt
  Br  1.11567116384341      0.25056141832215      0.06634880539211
  C   2.96222356769913     -0.02843259575786     -0.14375568537237
  C   3.49778815498326     -1.25648231088344      0.04919337024221
  S   2.76041277304190     -2.75098329890155      0.49142414019796
  C   4.38720927349528     -3.60492217540536      0.44511832531695
  O   4.49321229344132     -4.77605091186927      0.68615447973742
  C   5.42741795276513     -2.65914582206934      0.09192359589427
  C   6.85617707780969     -3.09647867851976      0.00179565195952
  C   7.25919525207667     -3.60094012004690     -1.38817751844195
  C   7.11811767079570     -2.52952845596127     -2.43314496039567
  C   8.20856069950743     -1.57434948775651     -2.68913962464947
  O   7.93510437285719     -2.63745551389210     -3.58030319722939
  C   4.92249205084899     -1.41874022844528     -0.12534809556734
  N   5.60095394688690     -0.28463054634168     -0.49863643971494
  C   4.96025508466695      0.90184921746772     -0.66212851170859
  N   3.69587265094009      1.06838714424679     -0.49657975133905
  H   7.00737531744437     -3.89678818377036      0.72779377373456
  H   7.51873523926339     -2.27356739529528      0.29437190786580
  H   6.63823201831234     -4.45901869357260     -1.65574987619409
  H   8.29839104191904     -3.93614027749578     -1.37739515933296
  H   6.10332500895262     -2.20381165707895     -2.65176959308710
  H   9.13445601941900     -1.67171167550320     -2.12986072064720
  H   7.99218659063778     -0.58469626686739     -3.08022418213575
  H   6.59168764994157     -0.35006429019486     -0.68823481567441
  H   5.58094712845079      1.74114080559213     -0.95167591885051
