21
Coordinates from ORCA-job 19477optt
  Br  1.04343012506655     -0.02214385791585     -0.18106382763292
  C   2.89381776156147      0.06154855357407      0.17165933747730
  C   3.70335743654261     -0.99837042550491     -0.00507866126275
  S   3.02686423170250     -2.41505574081168     -0.81480410523137
  C   4.33746667129781     -3.61019638216051     -0.78815627766989
  O   4.19861401475453     -4.61763030952675     -1.42504166835100
  C   5.47954376834350     -3.38254032614673      0.10926042105252
  C   5.82309672062546     -2.19626001573933      0.60999256931756
  Br  7.17399503927269     -2.20213437943326      1.94195467526703
  C   5.13412530981392     -0.92478414872681      0.31898826527861
  C   5.77502005620327      0.27062262760299      0.36408311661329
  O   7.12865175041407      0.38408646538682      0.43190873548332
  C   7.90243227051206     -0.24937513177950     -0.52108088475737
  N   9.14499371862013     -0.27655130628239     -0.48373549688098
  C   5.12496581227455      1.59454338992451      0.39661646287745
  N   5.71605264894762      2.71116564361084      0.37424465275855
  S   3.38456006781716      1.64330339222011      0.67173823365413
  H   6.02046366354483     -4.28093707954242      0.37673236866129
  H   7.32109452329350     -0.70897903714375     -1.31823522224340
  H   9.51567965346646      0.18791288916626      0.34583707395596
  H   6.72677475592524      2.58977517922833      0.32218023163268
