23
Coordinates from ORCA-job 19479optt
  Br  0.59157549367518     -1.94500347826519     -0.42705756422175
  C   2.14850237864217     -0.91631040026573     -0.26316237058590
  C   2.12439238141751      0.38913608597578      0.08145959234585
  S   0.59675780887743      1.04503443506580      0.64959628696993
  C   0.59573522573605      2.82518698949650      0.71235550998908
  O   -0.30710664419693      3.29096835819857      1.35058782809450
  C   1.50250761332344      3.71092834923085     -0.06906101541840
  C   0.82713733212302      4.99119723139681     -0.50660526989485
  C   -0.28520228368754      4.71150904050100     -1.41389314140448
  C   -1.18864276477792      4.43499453764336     -2.14762228944098
  C   2.80653119902890      3.50973460277017     -0.27513997470104
  C   3.66455533484629      2.39314843041285      0.06329552033566
  C   3.40859998597286      1.07352382271564      0.16295109335354
  C   4.59293331539561      0.20423882035350      0.19660133349818
  N   4.62820324805561     -1.03254476648941     -0.08640302200967
  C   3.42068292455992     -1.66290849782790     -0.48159339904338
  O   3.44040741932151     -2.76829617415804     -0.94302224308011
  H   1.55503329537928      5.64108620196971     -0.99244444441102
  H   0.44195932309880      5.50729582651293      0.37615774538372
  H   -1.99903173078668      4.19648355721039     -2.79445868346570
  H   3.34028785301593      4.32421020125631     -0.75565929369253
  H   4.71605136335112      2.65988006782621      0.11674060234550
  H   5.53412992762833      0.69150675846973      0.45137719905386
