28
Coordinates from ORCA-job 19475optt
  Br  0.17278611528486      2.75706464880012      0.04194891815173
  C   1.93105864691386      3.14094139990645     -0.45323588144418
  C   3.02640947309976      2.70121548025568      0.18159969419172
  S   3.17730437501795      1.72068912618677      1.57716243403291
  C   5.00570548605693      1.80495233550629      1.44809878674047
  O   5.70459028325086      1.26704727418163      2.25711520056135
  C   5.40103808179660      2.59713088953775      0.27939949554750
  C   6.88469095167138      2.70738856086422      0.04371087329369
  C   7.45263187772429      1.36036161621663     -0.45077104015303
  C   7.15886936361225      1.14850241748710     -1.93186236727225
  C   7.73052427851833      2.31282200292975     -2.73897855035851
  N   7.22419797721793      3.60758887718861     -2.31157923715650
  C   7.36145375719664      3.83887314014601     -0.88410312907944
  C   4.31600663119723      3.08799187105383     -0.37372773531852
  N   4.34279598372146      3.91104793735930     -1.49841711234949
  N   3.28485511729832      4.30358907981542     -2.04744952222986
  N   2.09951069592358      3.93111730035488     -1.55937112969988
  H   7.31277351863459      2.89016808624951      1.03457133810769
  H   7.06685709142610      0.54453788068412      0.16120741712916
  H   8.53746522468566      1.38093469847915     -0.30547340109727
  H   6.07629078825828      1.09384398934159     -2.09439333780994
  H   7.58308709555295      0.20074268394913     -2.27126752423136
  H   7.51959198014869      2.19515911107655     -3.80285696032678
  H   8.82119186848516      2.31935272755312     -2.62763553351211
  H   6.25293714026988      3.71350946498952     -2.57461379235684
  H   6.85706930301725      4.77367923971382     -0.63617184695970
  H   8.42702159290761      3.98322422902182     -0.67484563396584
  H   1.31028530111151      4.30452393115120     -2.06306042243469
