23
Coordinates from ORCA-job 19474optt
  Br  1.08531331624727     -0.03987173860720      0.27871429600519
  C   2.97446455063832     -0.05927047253271      0.15451989383440
  C   3.59325365653205      1.14137479419924      0.04739430579141
  S   2.80316931049419      2.67935102023455     -0.02139388791466
  C   4.40071653744639      3.56225587191996     -0.15532539627739
  O   4.45701597287193      4.75318425559547     -0.24030478889366
  C   5.47149530713221      2.58290776457142     -0.13406963363713
  C   5.04035003160562      1.30713748729480     -0.02378904195689
  S   6.10162473534899     -0.04408306084105      0.06429330931988
  C   5.00583901229395     -1.38601144585020      0.16444760028945
  C   5.71754518517120     -2.62567579588075      0.22480551560078
  N   6.32985588355665     -3.59392311043949      0.29744326207376
  C   3.64909404582386     -1.33696445885738      0.19293399107889
  C   2.86272612882053     -2.62124965952531      0.19083482092776
  C   2.35302066091096     -2.97486557770335     -1.22203254981048
  C   3.44944265864866     -3.15092209205303     -2.16905340724114
  C   4.38063950559015     -3.27593820611529     -2.91113300120000
  H   6.50095007671410      2.90247053707726     -0.19616960149966
  H   2.01051835300848     -2.53516169856459      0.86271826473155
  H   3.49007186503995     -3.43451687957272      0.55099179734163
  H   1.68112473155544     -2.19432761110207     -1.58395704646336
  H   1.77004571703185     -3.89557360601191     -1.16162411770885
  H   5.20572275751719     -3.40132631723565     -3.57124458439148
