22
Coordinates from ORCA-job 19471optt
  Br  1.13039713172413     -0.34586980985330      0.08366436109322
  C   2.99225963511394     -0.14033672662801      0.06365702632259
  C   3.56392860732246      1.08147603576834      0.04158923560491
  S   2.83369246463305      2.64385297915889      0.03356159241797
  C   4.47556339774631      3.44822150074061      0.04192547523947
  O   4.57488554028414      4.64164784559463      0.04220685969281
  C   5.53268382934322      2.43731070298670      0.04143223049330
  C   5.00549023738480      1.18428822525344      0.03851418904014
  O   5.74996044590164      0.06309751915111      0.05549838012844
  C   5.15472111133492     -1.14990895063039      0.07575480936945
  C   3.82623049870084     -1.30928798935835      0.07835960789422
  C   6.94972157215031      2.80360789260731      0.05055209737721
  C   7.93188899244398      2.02239423798255     -0.55641959740327
  N   9.21831891347949      2.34373678790967     -0.53882855399220
  C   9.53541977026066      3.47022456587683      0.08903218797124
  N   8.69273752873728      4.30384925769784      0.68729325631546
  C   7.40908710650865      3.97136320998682      0.66445380691829
  H   5.87833017792522     -1.94961033218147      0.08812964463546
  H   3.39774917528514     -2.29895966526268      0.09320124370156
  H   7.66801703097757      1.11391332548200     -1.08512814610469
  H   10.58596570841981      3.73765682815050      0.11107206115750
  H   6.71595112432236      4.65133255956693      1.14347823212692
