21
Coordinates from ORCA-job 19488optt
  Br  1.35662628252621      0.10175570555691     -1.68797210772730
  C   2.94239041767734      0.04165622150553     -0.68148451127690
  C   3.63056602919871      1.18564647269258     -0.44622544504002
  S   3.21256662310789      2.77532655913472     -0.99365482894217
  C   4.67035287366477      3.50306468253093     -0.18853467841582
  O   4.92303969609006      4.66691962954613     -0.23533331627715
  C   5.41169252992656      2.42624542508874      0.47943802425393
  C   6.59613846398118      2.68130907900294      1.21648553507975
  N   7.55581115819010      2.84883151270144      1.82448937072116
  C   4.84660289612116      1.19569624955643      0.32858553350747
  S   5.50405112567837     -0.24498096296579      1.00797810336419
  C   4.33824700089940     -1.41083677630608      0.45814040209588
  C   4.62060228805620     -2.82934796006672      0.90789949998434
  O   5.84088284353441     -2.92957749930369      1.59982612314208
  C   6.95219453616468     -3.23299050925788      0.86140015513590
  N   8.11306502392608     -3.24680954443827      1.31441757110422
  N   3.29505694664101     -1.19688605479179     -0.24700503874044
  H   4.59085654549245     -3.48051797007687      0.03066183062697
  H   3.82743415084275     -3.13815136967252      1.58860420926731
  H   6.74130583181194     -3.47864684696978     -0.18036655505625
  H   8.14251673646864     -2.98970604346694      2.30165012319286
