24
Coordinates from ORCA-job 19481optt
  Br  2.51304398880368      2.16794141826573      1.45235838117181
  C   2.69807827760719      0.56939909255860      0.47888428945795
  C   2.08652122589919     -0.59359483374443      0.87323559839056
  S   1.18388588323804     -0.73337527182843      2.38198403746773
  C   -0.59377426363472     -0.93633446380463      1.72699631687042
  O   -1.11077934419853     -0.05795765664877      1.11629509579480
  C   -1.01696622218110     -2.31912380861623      1.94866572416428
  C   -1.51885134928280     -2.96109338384238      0.86586849842322
  C   -0.75705245867830     -4.13497503784299      0.50385474376668
  C   -0.16272999010361     -4.03447083548609     -0.69948875349604
  C   1.32719836630991     -3.78068317764592     -0.75871135061490
  O   2.09893631725715     -4.12435058531562     -1.63350775897115
  N   1.53987649748623     -2.84784737045213      0.23824967260341
  C   2.22889959103331     -1.76100418667691      0.01388252600377
  N   3.03009770047969     -1.62097017597742     -1.08926874827010
  C   3.63474653802337     -0.46586816583977     -1.44909871980927
  C   3.49709895596530      0.64682570372193     -0.69292042002328
  H   -0.41556961800377     -2.87585264885847      2.65246241545747
  H   -2.02361187977995     -2.40116084508924      0.08620926145816
  H   -0.21607553776565     -4.61483893975714      1.31066408753475
  H   -0.67614442751878     -3.51913366657389     -1.50903440401768
  H   3.12190518927791     -2.46741281704198     -1.65100961178552
  H   4.22451433983605     -0.49505190270535     -2.35399438794493
  H   3.97875221993019      1.56993355920155     -0.97157649363216
