22
Coordinates from ORCA-job 19483optt
  Br  4.82700828004157      1.09134316307112      2.49888256642241
  C   4.95341773493265      0.45797359119403      0.73894060164765
  C   5.86971921956412      0.88954930798984     -0.13377805001241
  S   5.82123175569856      0.15582239078339     -1.77151237058074
  C   5.63469023114614     -1.46411717542387     -1.08067518316416
  O   6.66593480533652     -2.32618357935478     -1.39354659601745
  C   7.55424268910768     -2.23100466063383     -0.32292688330730
  C   8.46774754927132     -1.26029217974472     -0.21918576176866
  C   8.80149404570225     -0.29670448816175     -1.32109401529935
  N   8.76055917725901      0.96048420532894     -1.28276291809952
  C   8.22056450012469      1.75424732032782     -0.28886933484269
  C   6.94882158989967      1.82562440620962      0.14991526144020
  C   9.22238831073036     -1.13630195600513      0.98675114410500
  C   9.85081422968271     -0.98251460209036      1.99562074295588
  N   4.79562094384188     -1.74909770012569     -0.19719025597694
  C   4.04699955436687     -0.69737645072637      0.38502788289381
  O   2.89025741353109     -0.77160306251618      0.65882532215574
  H   7.37456070548393     -2.94654649161999      0.46981998620750
  H   9.15132093706946     -0.75680789763970     -2.24463837353830
  H   8.91729697420567      2.49990174442578      0.07944451926732
  H   6.72923019790301      2.59887848665510      0.87448171944828
  H   10.40207915510064     -0.85227437194325      2.89646999606373
