22
Coordinates from ORCA-job 19482optt
  Br  0.78027200367470     -2.27575714426970      0.31835636025974
  C   2.07033992044971     -0.96281315308019     -0.05197394193574
  C   1.77033790625106      0.31847019776118     -0.36284807802495
  S   0.02479786653152      0.70584305232444     -0.46944256470991
  C   -0.28058870408554      1.94963474930021      0.86578354123334
  O   -1.37615950768006      2.13341314199222      1.27089440336773
  C   0.99212753329750      2.70470420109012      0.97277026133206
  C   1.10480918481800      3.62751968382465      0.01736380526208
  C   2.17519988969805      3.56548572616043     -0.98118086792376
  N   2.80072250841535      2.50608384513697     -1.28291122542804
  C   2.90686706795064      1.28673544939567     -0.60893620834390
  C   4.16463311742988      0.93727017429942     -0.24258327271909
  Br  5.56493245370274      2.19338490012915     -0.38437555160661
  C   4.53796228709336     -0.40067010273638      0.19959844512864
  N   5.66736453116417     -0.79465165438626      0.61575267378946
  C   3.46383183396609     -1.44817954434546      0.05847174401839
  N   3.72382746053627     -2.68298944714488      0.05112038470191
  H   1.85297124572266      2.17617566874490      1.35998559890345
  H   0.20392929131805      4.11255620379520     -0.35437862335238
  H   2.28988259330980      4.40211074765137     -1.66732737745561
  H   6.34936361997841     -0.03788263882112      0.64147652663097
  H   4.73557589645760     -2.80644405682197      0.15438396687222
