22
Coordinates from ORCA-job 19495optt
  Br  1.33861972131892      1.58539056666433      2.50310775266473
  C   2.39634810494971      0.95900851584940      1.06661879416059
  C   3.28497998435790      1.75029170322918      0.43763181540648
  S   3.30591338216510      3.49434195168701      0.57603367435630
  C   1.64952265218351      4.18359010639227      0.32219295976644
  O   1.64391502550157      5.35111393891535      0.61015488980486
  C   0.37666751545336      3.63060517914406     -0.23774850073506
  C   -0.18455265049636      2.45866876037698     -0.52497667752165
  O   0.43931265982853      1.25477203624566     -0.48584585736543
  C   -0.23516048572844      0.19439064754197      0.07476539467585
  O   -1.42332760969810      0.10124749322739      0.13600302338833
  N   0.68370285031622     -0.70360880708848      0.53448118085370
  C   2.06221840111742     -0.37685059205938      0.56167000450363
  C   2.96827525255923     -1.14136055835050     -0.05194315657093
  S   4.58510913871548     -0.59882973962697     -0.34644440077607
  C   4.33854486786466      1.17404084727606     -0.43232723404397
  N   5.13506510254810      1.91272890209263     -1.07560621602019
  H   -0.29790514679752      4.46851477947748     -0.36891056084472
  H   -1.22626117064697      2.41444726998163     -0.81897928111034
  H   0.31952121331903     -1.53075447543421      0.97948244651154
  H   2.69532256467691     -2.09343257576911     -0.48732392678625
  H   5.82416862649172      1.38568405022721     -1.60903612431784
