21
Coordinates from ORCA-job 19497optt
  Br  2.02465867672955     -2.63881776744830      1.26949807953998
  C   3.44984382804333     -1.56692905839643      0.62669363113951
  C   3.47570710153685     -0.99006231457838     -0.59513402818366
  S   4.61469098048832      0.31785870149156     -0.91447119000407
  C   6.08325173850660     -0.16743388744167      0.00740267722276
  O   7.10386727684480      0.44406407785930     -0.04119493232826
  C   5.81749564839131     -1.45944355231307      0.71694915881074
  N   4.57741647310502     -1.56337439785717      1.39220315344417
  C   6.59610843959768     -2.47774260454905      0.34919431432657
  O   6.37272746230227     -3.80344659948341      0.53355958135806
  C   5.10046918625855     -4.33293107656445      0.44372992042159
  O   4.68458002270697     -5.06557472443579      1.27994546269725
  N   4.39751251164041     -3.97263741040572     -0.68470264586920
  C   4.82682483813270     -3.26575681381657     -1.82135399249899
  N   4.14774203336340     -2.37272438993663     -2.39509308329101
  C   2.99984924960029     -1.84827620541224     -1.73771597000054
  O   1.87671132377359     -2.12887722419326     -2.02422345227825
  H   4.54751993227498     -1.75417997351816      2.38249713251182
  H   7.53341684905314     -2.27550714248907     -0.15487796917420
  H   3.40475779727997     -4.16211510976185     -0.60348943795836
  H   5.79284863037016     -3.56809252674959     -2.21841640988588
