22
Coordinates from ORCA-job 19505optt
  Br  1.06295307163689     -0.28530623247593      0.19461955403581
  C   2.89765710185129      0.05158522225008     -0.02683973275994
  C   3.41494658370088      1.24478478940155     -0.40159821725035
  S   2.36790025126723      2.47827246373333     -1.08011487554880
  C   2.75935437019838      3.96374766945424     -0.17492400075158
  O   1.94121487316901      4.83979488037720     -0.15945175874562
  C   4.10113523431408      4.18548066718627      0.44844586289455
  N   5.22155929073715      3.62772126576656      0.24766165946933
  C   5.59545067184810      2.47306892333751     -0.38534201199593
  C   4.87051525088788      1.33626322021684     -0.53757861108743
  N   5.59122716931654      0.16083106049812     -0.75337766731884
  C   5.03952022452266     -0.92398928639489     -0.41299381948775
  N   3.73839949329884     -1.02626989152162      0.11064234135257
  C   3.47001721469760     -2.36657762783506      0.41431083312885
  C   4.51767503780892     -3.15155113789876      0.13472180503314
  C   5.59210771906653     -2.32079227767537     -0.42608351907424
  N   6.75615229134033     -2.58600542575825     -0.84132389880300
  H   4.08781558820885      5.08261978963082      1.06713963213430
  H   6.65707320814884      2.39353665814324     -0.58371743546483
  H   2.50954529240322     -2.62726723829243      0.82798986924361
  H   4.57198913367052     -4.21433963925349      0.30075043738696
  H   6.95479092790623     -3.58360785288998     -0.75893644639079
