24
Coordinates from ORCA-job 19500optt
  Br  1.06641132383716     -0.10872488339023     -0.45622598154257
  C   2.92779538214625     -0.01163028017656     -0.27187913534513
  C   3.57791298060580      1.16726839105280     -0.15235471150938
  S   2.99585888190412      2.78474622377636     -0.10899887442138
  C   4.71957752072844      3.43651860111092      0.09113401540266
  O   4.93574731300929      4.61088284077260      0.21090686575196
  C   5.64317981741011      2.33098473529246      0.08699732809475
  N   7.04136561515394      2.46750432781033      0.23691890916357
  C   7.80436478812249      2.80098046603785     -0.95537183071574
  C   7.76430117656974      1.81736829110322     -2.12999085006952
  O   7.63410182709626      2.89559095025091     -3.06263024107070
  C   7.31922390261342      3.82007423587669     -2.00604195714453
  C   5.01538964704898      1.12322148089262     -0.01849033133588
  N   5.60038201100734     -0.09456695834266     -0.00649918469194
  N   4.96936764020019     -1.26387519710183     -0.11618647160094
  C   3.68404293376417     -1.22890972611992     -0.25102669770606
  H   7.25777752323263      3.11211743080558      0.98780547730300
  H   8.82655367436726      3.00786959667651     -0.64327796577096
  H   6.86801399313523      1.18599576853412     -2.12832859612578
  H   8.64831883976125      1.20662079430026     -2.31724518328620
  H   6.24856850511586      4.02744582572454     -1.96180446559448
  H   7.87443717594452      4.75344435631039     -2.09444266987827
  H   6.60189293791041     -0.14641757848275      0.12396483694275
  H   3.18541458931509     -2.18350969271426     -0.34493228484921
