26
Coordinates from ORCA-job 19506optt
  Br  3.83999390814012     -4.55218912015583      2.53167768326815
  C   5.14886628921067     -3.51852346897474      1.61323059269444
  C   6.47025515094085     -3.70259177722418      1.85508234997136
  S   7.55605378343710     -2.42776682828139      1.38673964792138
  C   6.77198178641007     -1.58441744865332      0.02386550118821
  O   7.34958684329339     -0.67958075532130     -0.52415086158593
  C   5.49225309730213     -2.15161039764905     -0.39707609003982
  N   5.26743389056705     -2.18143269513429     -1.77615331425031
  C   5.44342786567449     -3.54991083259609     -2.32981658912496
  C   6.29359080686603     -4.43015035202677     -1.49104416840793
  C   6.87479495522798     -5.13255060792683     -0.70364319344349
  C   7.45482135697279     -6.00692321455893      0.32529536293686
  C   8.37239421972493     -5.31808122579768      1.37039874826665
  C   7.11692990919964     -5.02166758599608      2.25069364678185
  C   6.46885843730671     -6.23117394137962      1.50370332581073
  C   4.67828105512329     -2.80698470138608      0.46776923070927
  H   5.87451235450785     -1.51680484983304     -2.24012385399970
  H   5.85431101521280     -3.45522627047975     -3.33511699323118
  H   4.46593182417870     -4.02503013821617     -2.42872227404940
  H   7.86010289146363     -6.90462711387004     -0.13919925577494
  H   8.97846409820584     -6.07933813139322      1.85961796018837
  H   9.00772479681435     -4.50034620344077      1.04729544729753
  H   7.24633053908083     -5.12778059139546      3.32720573158031
  H   6.71299563745158     -7.15544661440765      2.02616533487071
  H   5.41175304805528     -6.21414926898802      1.26901824075682
  H   3.68135043963176     -3.05469586491359      0.12328778966502
