29
Coordinates from ORCA-job 19507optt
  Br  2.48877982044354     -2.99892494485255      2.82341167092716
  C   4.01327153433821     -2.76135694878304      1.72680971450460
  C   5.23859238084584     -3.46981750158466      2.20596838170720
  S   6.42621854123238     -2.72560981288998      3.07270644632165
  C   6.21407289505494     -1.26925706552784      0.14448776594483
  O   7.16804353414784     -0.67327577877594      0.40568264703664
  C   5.11408180731479     -1.86533215445376     -0.29125108736373
  N   5.05567606432341     -2.31971385519049     -1.64364124076193
  C   5.19305869438936     -3.76710445579267     -1.82932717597760
  C   6.42340884212440     -4.41903088486630     -1.18341468077147
  C   6.26262926587366     -5.92175021671658     -0.89878897336954
  C   5.71569078268405     -6.29970854507334      0.48007810929208
  C   6.44480683946753     -5.62013233254856      1.67215180791489
  N   5.29304288584315     -4.73213325962867      1.80662454532615
  C   4.43980237864102     -5.55325668085967      0.94535007992826
  C   3.95099855086964     -2.08255008578397      0.58381698661173
  H   5.64989031339346     -1.78571628667574     -2.26165814218745
  H   5.19426059850118     -3.95218753719326     -2.90519935800212
  H   4.27689412943501     -4.22211583046659     -1.45368926671597
  H   6.66505476844447     -3.88568747299075     -0.26091781703256
  H   7.27982218669230     -4.26963181929975     -1.84429791207018
  H   7.23503812691419     -6.40993378327466     -0.99836546412517
  H   5.62071412006347     -6.37053216824119     -1.66417416542344
  H   5.64364067545673     -7.38250838304080      0.56033369611407
  H   6.58598806122091     -6.25496348600861      2.54779089973901
  H   7.36866786128256     -5.07901639353620      1.46145698033426
  H   3.77048710108892     -6.17395976409819      1.54460535871630
  H   3.85569841999961     -4.99655863509937      0.21995132138029
  H   3.00066881991331     -1.68723391674677      0.23849887200203
