21
Coordinates from ORCA-job 19502optt
  Br  1.01291383142006     -0.23950511300587      0.06014798150745
  C   2.87299977513912     -0.09206077709681      0.06198091156183
  C   3.54629338424818      1.07779586183905      0.06365108463105
  S   2.61120750627111      2.56316072372056      0.06472488533108
  C   3.81223464057239      3.86556580327025      0.06630906703514
  O   3.39096891282603      4.98615553494964      0.06737071534494
  C   5.30263531091460      3.57279308733098      0.06626839967152
  N   6.11895803487249      4.54524599357319      0.06699331734116
  C   5.77417582185126      2.20771842668003      0.06549705283091
  C   5.00590431517187      1.09673126335990      0.06441492147278
  C   5.57138115288885     -0.22765080238233      0.06372023263991
  C   4.79686720197460     -1.32455294961772      0.06229721548886
  O   3.45015269381887     -1.31114981014446      0.06130450846551
  S   5.68677716680709     -2.81540287381498      0.06167875341221
  C   7.22859205660507     -1.88656279321163      0.06350386414687
  N   8.40768537773085     -2.32755747503528      0.06397063776757
  N   6.91590888299067     -0.54428102763628      0.06437335670124
  H   5.60662216638490      5.43026794590355      0.06748373580338
  H   6.85294162297202      2.12106620430947      0.06577347952257
  H   8.46937632447146     -3.33858210273254      0.06320920914914
  H   7.66340382006845      0.13080487974127      0.06532667017485
