23
Coordinates from ORCA-job 19518optt
  Br  1.17540045274562      0.32220474594593      0.26919637364703
  C   3.01713511215128     -0.00542606954674      0.16446723698602
  C   3.53648161697813     -1.24993604027340      0.11769597162292
  S   2.47763107529517     -2.64536788173959      0.16266599352886
  C   3.56179979885020     -4.02769337551328      0.01383631729819
  O   3.06949518271711     -5.12025861590098     -0.00386393723235
  C   5.06910292824019     -3.85686109350779     -0.08251480196064
  N   5.79955771768457     -4.88731508850379     -0.20251261446708
  C   5.65513525557499     -2.53540509473458     -0.02450496217558
  O   7.02303325204464     -2.43847842334167     -0.15914629462027
  C   7.80501039878858     -3.08347841215820      0.77313316506707
  N   9.05005575882600     -3.11393579570987      0.71357945580346
  C   4.97480055163437     -1.36467682699333      0.04755516473225
  N   5.69234413276708     -0.18033676851659      0.03310967072556
  C   5.17425502073652      1.09754537468791      0.06483628380589
  N   5.80069419801328      2.19663508439121      0.03215731178496
  N   3.78895787687452      1.11987894007693      0.14396003286503
  H   5.21407710105274     -5.72451349992231     -0.22624988882229
  H   7.24450859618353     -3.54007152198142      1.58353447905193
  H   9.39802816814867     -2.65300429947705     -0.12759877719706
  H   6.69344648429383     -0.27329947858742     -0.05573187928061
  H   6.80642981307077      2.07669867169879     -0.02287160535441
  H   3.36861950732815      2.03609546960727      0.16626730419108
