23
Coordinates from ORCA-job 19517optt
  Br  1.60074690346073     -0.08812416249817     -0.58335453412092
  C   3.44576419694499      0.05120482318055     -0.25145460195088
  C   4.02632950405827      1.16248198305773      0.23493275436691
  S   3.09409825721277      2.57812657783807      0.68406663916108
  C   4.22894774398903      3.84544602869292      0.21968791651807
  O   3.90557137727469      4.99720457053081      0.29224962606745
  C   5.62624288665251      3.46135843404159     -0.26122048277644
  N   6.29293923118721      4.29368697301024     -0.93104725930005
  C   6.26663102709513      2.15435218109518      0.11661769631362
  N   7.52490595560850      1.99374677594595      0.17821335011314
  N   5.41211174812869      1.14071136146879      0.48587705029291
  C   5.95477157945536     -0.11682636502620      0.89080682024925
  C   5.37122846091377     -1.20278557508292      0.37366888362930
  N   5.63945137331097     -2.55511299063163      0.45743091012966
  C   4.71379973243522     -3.25081476517540     -0.32513357845174
  C   3.81717842263955     -2.38934227854166     -0.81208505166214
  N   4.19605004371197     -1.10182774479130     -0.39093456715376
  H   5.75579436137370      5.15690566572992     -1.05078707300395
  H   7.98572405179925      2.85742655458216     -0.09869853120615
  H   6.82028804867096     -0.10756518880398      1.52973555895856
  H   6.55795181734424     -2.89836019425005      0.67360988938807
  H   4.77529221997826     -4.31603587190527     -0.45388971691920
  H   2.94918105675414     -2.55185679246732     -1.42229169864279
