23
Coordinates from ORCA-job 19514optt
  Br  1.53004141167999      2.11942874495200      0.08220922143841
  C   2.47930944208189      0.48331849122395     -0.00513828052764
  C   2.10568876599132     -0.62061301689494      0.72021659719539
  S   1.26298785720562     -0.27531048378275      2.24854494583952
  C   -0.47702504323107     -0.76521036735845      2.21960438768433
  O   -1.25959397858426     -0.23273015221255      2.94708230931121
  C   -0.78705483747644     -1.90179858945278      1.30429083270732
  N   0.22512411347275     -2.60045415737826      1.04625985550181
  C   0.34173067652938     -3.65924779655119      0.18035443468098
  N   1.50593977736381     -3.91355633399634     -0.28976365007837
  C   2.61004652537156     -3.13610773649369     -0.03955849425447
  C   2.87355836716195     -1.85127563890427      0.36078342619865
  N   4.24352604010506     -1.51312823113411      0.20809581048386
  C   4.59543253582232     -0.42276656520251     -0.50716411132159
  C   3.67966683868248      0.54014476588303     -0.77336281631356
  C   -0.80251783285329     -4.45150920494665     -0.16525017739401
  C   -1.80789730180569     -5.05647319057271     -0.41032383507795
  H   -1.79453974994423     -2.02826745633157      0.90230860637438
  H   3.50670737836185     -3.66082899029281     -0.35574747956530
  H   4.91741191878691     -2.25374646119522      0.32072805707358
  H   5.62973373071739     -0.35832845891735     -0.81592564836422
  H   3.92546640692117      1.40401063414268     -1.36737687360665
  H   -2.68574304236049     -5.61354980458350     -0.63786711798569
