21
Coordinates from ORCA-job 19513optt
  Br  0.98743234108306     -1.48658710952597      1.05573485526312
  C   2.54815199463190     -0.69629631194014      0.36651265158843
  C   2.72995767328125      0.64719976532257      0.42736883381177
  S   1.53201765794754      1.67473201686596      1.22414943126497
  C   1.28216945361058      3.06829479440683      0.15119301423563
  O   0.40812161467390      3.84284976278065      0.41029821522420
  C   2.16822161194462      3.32380803657577     -1.04594719149528
  N   3.41875612065207      3.19827131796757     -1.09179454911229
  C   4.18456792616152      2.65011564097008     -0.04430220942741
  N   5.02250915429024      3.27856916474956      0.65257804659556
  C   4.02819443929997      1.17271678790459      0.07450388214007
  C   5.07321177554747      0.36923728733563     -0.17297451219482
  C   4.92843382622449     -1.07295466145872     -0.16884151151185
  O   5.83200909229903     -1.85625753717435     -0.31782553359066
  N   3.56960977187430     -1.53464404606331     -0.04902622607470
  C   3.35158030319451     -2.85233221904577     -0.56900572226548
  O   2.28208880897577     -3.29141821505367     -0.84528061204908
  H   1.64243737152114      3.76210819753265     -1.89286350418193
  H   5.03627118205142      4.26907656084699      0.40547854211614
  H   6.05604303789863      0.76115368961561     -0.39247986805911
  H   4.30621484283654     -3.36464292261252     -0.70947603227728
