23
Coordinates from ORCA-job 19512optt
  Br  1.20994076702126      1.95493080287238     -0.56938063067602
  C   2.21870792548946      0.38960548031946     -0.28944176525128
  C   1.94839563935343     -0.58207177133792      0.61293226633525
  S   1.01607976629137     -0.05986213253691      2.02327907172400
  C   -0.28566675849299     -1.23838608019014      2.38495108155922
  O   -1.13163837921101     -0.96618287772190      3.17856671152805
  C   -0.02982876587640     -2.54688793228794      1.73038723348865
  N   -0.25150912449789     -2.69873367570406      0.49942246587658
  C   0.37491760197290     -3.81335683319268     -0.06989302020135
  C   -0.49660200348281     -4.78769029459847     -0.77284536393392
  O   -0.11014240068738     -5.83334944484032     -1.22254158429622
  C   1.71149527905614     -3.95457909694335     -0.05944176209709
  C   2.77643347865894     -3.05594449535503      0.34571532898319
  C   2.91100650056720     -1.72047937928211      0.52778220684960
  N   4.25691354492526     -1.27281907872120      0.44196601215707
  C   4.45155108276259     -0.31659141174057     -0.36395509898433
  N   3.40559956602419      0.35070886266550     -0.98841506010394
  H   0.51641069467499     -3.27947694191268      2.33563435002507
  H   -1.55463717223645     -4.48116667664986     -0.84985418904569
  H   2.06324112389871     -4.86810429036853     -0.52830345430260
  H   3.74926525873222     -3.53554758294964      0.31692027882423
  H   5.44946734575771      0.04011873257089     -0.59170223810797
  H   3.60559902929855      1.09686611790506     -1.63478284035049
