20
Coordinates from ORCA-job 19510optt
  Br  4.40054709011744     -0.51766776312275      2.77083956622937
  C   4.65803076988055     -0.33193051886142      0.91740578998441
  C   5.55546763633287      0.51193117824005      0.41910365730589
  S   5.75872590446401      0.66681165821430     -1.34032408306562
  C   5.62489174187166     -1.06393821939896     -1.64981366689704
  O   6.69396888710285     -1.62058049703618     -2.32401446166031
  C   7.78213133929298     -1.69091268113654     -1.46989573654813
  N   7.65823908275000     -1.22117536628984     -0.32460735813546
  C   8.43933489204247     -1.18327018554644      0.80671012701895
  C   8.30477698776487     -0.21072470263689      1.72392748453218
  N   7.63916934980890      1.01619579558788      1.66253165962577
  C   6.53081428308083      1.36074243522444      1.16397798002827
  C   4.67336147469843     -1.80086221335618     -1.09164084565171
  C   3.86616621507738     -1.28193761656656      0.04688504187619
  O   2.79314049730629     -1.71426215026992      0.36598604961740
  H   8.62814846726019     -2.16553418280011     -1.96393625628268
  H   9.15108896702036     -1.98157320963796      0.99854788678926
  H   8.93321940001345     -0.28022092635938      2.60357127937219
  H   6.28168706365673      2.42176526873555      1.21964251935996
  H   4.63408995045769     -2.87085610298306     -1.25789663349890
