22
Coordinates from ORCA-job 19516optt
  Br  2.43935661385124     -1.35554305659340     -1.40556805960747
  C   3.11153568838447      0.14815381371651     -0.50684091980509
  C   2.34854402256557      0.93038982812276      0.28540481567025
  S   0.67383850205499      0.53338660914735      0.67106251561716
  C   -0.16432531287478      1.75895397357144     -0.30718192685955
  O   -1.34093269898234      1.94230776112032     -0.21133239319592
  C   0.71967388822203      2.55920856022839     -1.24511741112602
  N   0.95043367756890      3.79399809850038     -1.12944316567655
  C   0.33665986620547      4.53988114134984     -0.09002973242864
  N   -0.21305648106991      5.65366101110691     -0.30460967209826
  C   0.31345516494040      4.04082795544276      1.32963808901661
  N   1.21623607298786      3.43519377964575      1.96661520850180
  C   2.51014617407281      3.18646519190972      1.48028675782803
  C   3.00662015478366      2.10711305175460      0.86593709165016
  N   4.41020942960355      2.02641895632291      0.69671337265896
  N   5.06800379468101      1.24060973840459     -0.11186447091388
  N   4.46967414435877      0.33254094088465     -0.75325235670365
  H   1.18160103434568      2.00738540297150     -2.06304174326040
  H   -0.11260875653345      5.92057794209761     -1.28548921170343
  H   -0.60910542069185      4.28111884418042      1.85343103921258
  H   3.22351837992284      3.92961298409854      1.82671758040585
  H   5.00152206160303      2.69973747201639      1.16096459281744
