22
Coordinates from ORCA-job 19520optt
  Br  1.28215472715669      0.32299029959383      0.18339386357973
  C   3.10576169201124      0.02503294104045     -0.04165578655084
  C   3.70748023675859     -1.11817898800136      0.26519181675069
  S   2.93986638757179     -2.57611188876044      0.83429893187554
  C   4.41109014596190     -3.49992069375935      0.48433436952623
  O   4.54523230079267     -4.67583888434152      0.61507975388706
  C   5.51779106779532     -2.57777109249084     -0.00619723825905
  N   6.64078534864875     -3.01414237995340     -0.40146763337334
  N   5.09578383942108     -1.28397061369383      0.05399827399708
  C   5.83339078168107     -0.07877348028356     -0.17184774432706
  C   5.14148981907144      1.01717952534055     -0.49236957737286
  O   3.77124311438154      1.09363474004341     -0.55208529213884
  C   7.25877516768599      0.05516989935412      0.11555569610691
  C   7.90185909008244      1.10844905628325      0.72501443310279
  N   9.24924626092924      0.91903803504234      0.71315191342721
  C   9.42748839634619     -0.23434937251871      0.11274626368827
  N   8.26320289428480     -0.79117895826007     -0.27762358006186
  H   6.66097780918551     -4.02678060460329     -0.28968230391440
  H   5.61323021337951      1.96655326882274     -0.68525488780161
  H   7.44860671124542      1.97448488746798      1.18037868240591
  H   10.37914192817572     -0.71315823337088     -0.05286722463856
  H   8.08140206743303     -1.72535746295140     -0.63609272990899
