23
Coordinates from ORCA-job 19524optt
  Br  2.54075476796547     -2.22624045749131      2.04372274963459
  C   2.92135339701313     -0.89986508070643      0.78506222557840
  C   2.45320735701357      0.35748088386541      0.85233048476833
  S   1.42932427992759      0.99909715752391      2.12390879539441
  C   0.22195341315494      1.64677487834409      0.93846312311858
  O   -0.13946131929082      1.04896967897054     -0.02483362549994
  C   -0.21346217567008      3.06610491636309      1.23136548453777
  N   -0.65896151774136      3.28817322057359      2.39303707361397
  N   -0.13603533553356      3.93312002906095      0.16228481372238
  C   0.59650238848644      3.79164227256381     -1.02107563414969
  C   1.72459974661424      3.11432186766890     -1.20190030650645
  O   2.35159766527404      2.50547092423180     -0.14069745158981
  C   2.82464929908016      1.23388093684252     -0.25142430283250
  C   3.58003006648619      0.79437383476642     -1.26766601484979
  C   4.07695880030648     -0.56857445353853     -1.27865091152571
  N   4.79624297095042     -1.15670663673808     -2.12710925181853
  O   3.71966930331300     -1.34843751421758     -0.18098559381005
  H   -0.96323036122081      4.25050282406630      2.53491755518988
  H   -0.64686754464844      4.79577227564312      0.26921838470577
  H   0.17980742150118      4.30840484033263     -1.87410875185411
  H   2.18528876180782      3.02943532399596     -2.17509972707628
  H   3.85920749652050      1.43282634678402     -2.09306911453313
  H   5.02587111868988     -0.53452806890515     -2.89569000421810
