18
Coordinates from ORCA-job 19529optt
  Br  1.12105629144260      0.13333347021426     -0.14093895985343
  C   2.98959519315051      0.02424293447625      0.03583254858593
  C   3.67378678809298     -1.11516266316238     -0.16799329195424
  S   2.75341067595801     -2.53625953311474     -0.65645162529074
  C   3.80410894341544     -3.91210032593327     -0.28052864196541
  O   3.39529062995152     -5.01413728896670     -0.46830222956034
  C   5.22419047031411     -3.66391869626002      0.24549574497857
  O   5.84688518108171     -4.60145832295203      0.66400198464037
  C   5.81132232622532     -2.31996815671336      0.19901391346390
  C   5.12011220865307     -1.17198533277263      0.01965007811066
  N   5.85358884883355      0.04014239462686      0.00178296158253
  C   7.20135218751760      0.01546383559051     -0.48853592922311
  N   8.00142623053841     -0.94034559525774     -0.38039987447187
  S   7.55570420192492     -2.35804457909915      0.42294599318374
  C   5.38224079810160      1.31123218426079      0.27037824757000
  O   6.10214702956399      2.26887125420963      0.33435738881090
  S   3.64635908013656      1.56095483355759      0.50734415199968
  H   7.49342291509804      0.93013958729614     -0.98965246060713
