20
Coordinates from ORCA-job 19525optt
  Br  1.29738326758138     -1.80921119629187      0.31018294221126
  C   2.77692658313029     -0.69183032697742      0.13000143463427
  C   2.84113690491219      0.58883809276920      0.57231753161954
  S   1.56103044598736      1.29433251658382      1.54753061670539
  C   1.17398392433402      2.82185836241962      0.67581710211144
  O   0.19851311121558      3.43539488537149      0.95265142667885
  C   2.21184916670966      3.27990761668540     -0.34105745651022
  N   1.86615002468311      3.41758921683288     -1.54081940139692
  N   3.45695265456659      3.58596897809418      0.21824154808408
  C   4.29381250529919      2.69802287728014      0.53764270331975
  C   5.63267321601814      3.12996597134746      1.12750884038422
  O   5.89422448147555      4.27764280532268      1.30874922858160
  C   4.10420350010510      1.23720842643964      0.28280965057048
  N   5.11611898775096      0.65755337653424     -0.25598710792409
  C   5.02896022962215     -0.67643393590282     -0.62449866922258
  N   5.93302369144911     -1.39595451239819     -1.09985660677786
  O   3.78354062143685     -1.29973191409510     -0.47015652439609
  H   2.63876742788247      3.76281573758593     -2.11337367518181
  H   6.32220054724119      2.30965226140498      1.38049157443892
  H   6.78554870859905     -0.85158923900627     -1.19719515793023
