25
Coordinates from ORCA-job 19521optt
  Br  1.15071042614374      0.02200269541287      0.12729595958649
  C   3.03136635614276     -0.03748102146969     -0.04409743923685
  C   3.65924561500317     -1.23598213315808      0.01528671595683
  S   2.69496732384200     -2.68805454831953      0.25514444937319
  C   3.89519847918629     -3.98371329347104      0.22794705087415
  O   3.54174061333197     -5.12206708855410      0.35791691973530
  C   5.30328152454113     -3.59864948801980      0.05010827599619
  N   5.77530430584000     -2.42616923464865     -0.08671406877224
  N   5.04621447909583     -1.30529325872046     -0.10272138166075
  C   5.85644353892499     -0.11423368844848     -0.26575769882860
  N   7.11712025028288     -0.12752231390605     -0.35604230677164
  C   5.10504736891672      1.12164679987543     -0.32377593896632
  C   3.76592557770274      1.19567051815493     -0.22691325251692
  C   3.01029594346023      2.49291312386964     -0.29652787414492
  C   3.86776188652908      3.73378969176372     -0.44105979766527
  C   3.04609719059698      4.99440914207695     -0.49380949962416
  O   1.84768220513709      5.02090368118105     -0.46995300996620
  H   6.01349776877490     -4.41773252654050      0.04145954538044
  H   7.49297689090528     -1.07006513155937     -0.29956356931875
  H   5.72279224280665      1.99696348771944     -0.45492714012947
  H   2.38758743916278      2.58719192216558      0.59658796883596
  H   2.29618809618224      2.44400587094911     -1.12288785165287
  H   4.47835101891649      3.71068165098785     -1.35082390610864
  H   4.57691738859035      3.84090492082001      0.38690343441529
  H   3.62728606998366      5.93388022183920     -0.55907558479024
