20
Coordinates from ORCA-job 19528optt
  Br  3.29523384987512     -1.89488833541119      1.46677701725471
  C   4.53929877407886     -1.02430505971431      0.36687361703058
  C   5.74728470020741     -0.63190972113578      0.75714930155370
  S   6.84046317689843      0.12603841454171     -0.39692694946630
  C   6.40015975327190     -0.79295241921269     -1.87060355858251
  O   7.02325034151894     -0.70295912902235     -2.88082449877152
  C   5.16896985830091     -1.63077810405179     -1.67110025961830
  O   4.17393828150772     -0.98246174889852     -0.95516250815848
  C   5.06307735469794     -2.92462842890271     -1.93191202857203
  S   6.43709753903008     -3.91226131383790     -2.42375772591549
  C   7.44310614187199     -3.88001421380488     -0.95504537673385
  O   8.42199307124946     -4.54533202424108     -0.85879194854431
  O   6.98512411317211     -3.02792791924571      0.00260447003710
  C   7.67184754649743     -2.94643875132673      1.18043349830913
  C   7.38870230779442     -2.03652972168751      2.11144593620212
  C   6.34116421838544     -0.98485300441590      2.09486465615015
  O   5.99969279831518     -0.43578571102481      3.10892107553289
  H   4.13739684246977     -3.43674804151581     -1.69861858292770
  H   8.44761674987435     -3.69087980548344      1.30208355797688
  H   7.94858258098243     -2.09038496160856      3.03559030724325
