22
Coordinates from ORCA-job 19522optt
  Br  0.98529984133159      0.14929524014909      1.16043152803159
  C   2.77846139573547      0.11339349315978      0.60974719777254
  C   3.36972499398359     -1.00929267450597      0.21582181411974
  S   2.65956746839866     -2.58933962425259      0.02279746384787
  C   4.22065660491594     -3.25190994208108     -0.54071934853091
  O   4.39184390648948     -4.37524429652114     -0.89325580059535
  C   5.30574224364740     -2.19300916190840     -0.46630387098382
  N   6.52517695405414     -2.38868011981348     -0.71175866455520
  N   4.74127295907235     -1.00667497668843     -0.06584536606617
  N   5.53339066784177      0.05144754568545      0.32706110104438
  C   4.92236988911958      1.10310561041998      0.67984652424819
  N   3.54016306081425      1.29169031092637      0.77635239345585
  C   3.01901316314226      2.54902215498101      0.28962582939433
  C   2.96883565771049      2.61376550218865     -1.22665719487226
  O   3.39185226628144      1.75044754230116     -1.94181656930158
  C   2.34965044491561      3.86914010440820     -1.84240183508634
  O   1.94024860986088      4.76281902328940     -1.16162233194491
  H   6.65855532781102     -3.36467588370639     -0.97541910155109
  H   5.52772543727932      1.95619979578434      0.96586794332266
  H   3.64517314724824      3.36783704237544      0.65348665419895
  H   2.02095043406644      2.73257397319429      0.69056837198356
  H   2.32532552627997      3.87608934061432     -2.94580673793203
