25
Coordinates from ORCA-job 19535optt
  Br  1.41371769912908     -1.50710829827839      0.47316238685567
  C   3.27435424457902     -1.22064099118716      0.23681652811710
  C   4.12045814992818     -1.48586845185847      1.25482326262317
  S   5.78083027018983     -1.03124295572984      1.20734130125663
  C   6.14315641932689     -0.82298659055326     -0.55325347880067
  O   7.24720306554995     -0.49769713234450     -0.87593636000528
  C   5.03858428327960     -1.19622391833582     -1.43680962517923
  O   5.40097258095397     -1.98195348181539     -2.51620842623719
  C   5.32299453124768     -3.32755533320982     -2.19510746932427
  N   5.38138055956771     -4.26559147648272     -3.01728763451369
  O   5.19502592526913     -3.47547745783467     -0.87314086995100
  C   4.96804448020406     -4.76244737923925     -0.29975106597456
  C   4.90064539645738     -4.59562783299521      1.21374582277474
  C   3.62866167534839     -3.92003326900726      1.80059197504511
  C   3.82764534418169     -2.50273339722898      2.34187328374852
  O   3.85688986125130     -2.24639324651081      3.51052921071572
  C   3.73376983682352     -1.12179463043282     -1.11149030832950
  H   5.47378219333220     -3.92496091945743     -3.96885087389661
  H   5.79058275877970     -5.42182979689424     -0.57956110236588
  H   4.04351698867616     -5.17374207694959     -0.71208301631245
  H   4.95688954645356     -5.60200169735786      1.63051560223864
  H   5.80447774519217     -4.08054923626780      1.54612222221896
  H   2.84415897737812     -3.89718130424149      1.04207797364624
  H   3.26325889664340     -4.50109860474967      2.64597652122187
  H   3.01799857025719     -1.36026052103749     -1.89009585957204
