20
Coordinates from ORCA-job 19532optt
  Br  1.06981416238676     -0.18845042334820     -0.20323610439874
  C   2.91881237966943      0.04733601037480     -0.07108094388032
  C   3.51925297017245      1.25166255449903     -0.08459863215684
  S   2.74334200257297      2.79304385190445     -0.20820396166944
  C   4.34641791043190      3.63744429324175     -0.19687663269428
  O   4.46223295995676      4.83209755391887     -0.26038007543167
  C   5.40037513940928      2.64149714011448     -0.08605849318800
  O   6.69772814829916      3.03624283640271     -0.15795484019110
  C   7.11689573127314      3.88182282178440      0.90163244422711
  C   8.58058696141369      3.94607044851219      0.87429050706359
  N   9.72351910674224      4.00430403835632      0.87815472217898
  C   4.96655340313644      1.35090256504558     -0.00212355015741
  C   5.69742897500010      0.12110904048358      0.15252876302788
  Br  7.56006665292473      0.14951843615682      0.38987134057429
  C   5.01882436137947     -1.05468528573814      0.16823235093442
  Br  5.80901017737815     -2.73762892199277      0.37107892013997
  N   3.65813105635784     -1.09704916238642      0.04129078378124
  H   6.80461367552285      3.47007061377577      1.86594075749265
  H   6.69817944631959      4.88314523919109      0.78581496872323
  H   3.19221477965301     -1.99145365029635      0.04567767562442
