21
Coordinates from ORCA-job 19530optt
  Br  1.01474240087545      0.66804583044047     -0.19354708617520
  C   2.82768899404046      0.26465305394483     -0.05363888541116
  C   3.33065401383674     -0.97589042629136      0.00601253243323
  S   2.23459620731781     -2.34271018801691     -0.08156075942479
  C   3.26919116880174     -3.77252701325513      0.15333532864015
  O   2.75140790799812     -4.84297005232503      0.12140715263029
  C   4.78224590964013     -3.60446573079849      0.39342923638771
  O   5.40979030990549     -4.60368803542938      0.63019702818063
  C   5.40507652611568     -2.29611305233388      0.32101230124648
  C   4.77084457663000     -1.11542128189590      0.13937816731577
  N   5.49616137290719      0.07806208809727      0.07287440255279
  C   6.96258011358106      0.04311858242422      0.11162764592157
  C   7.48113469325401     -0.24248767825133      1.44831336387647
  C   7.90229467038200     -0.48954681159702      2.53960950226465
  C   4.93953480764811      1.33756887900786      0.03971277446215
  O   5.55094590898391      2.35890609426235      0.04383977663738
  O   3.57517177525540      1.38402887275925     -0.01204183127866
  H   6.47198324324521     -2.33563944615221      0.47884827592060
  H   7.31158897303957      1.01608391891290     -0.22402048725571
  H   7.30359056861781     -0.70995070574477     -0.59970947133305
  H   8.28177585792403     -0.70805689775772      3.50992103240867
