24
Coordinates from ORCA-job 19549optt
  Br  4.23057179907814      1.38242555977946      2.19681496384655
  C   4.67595763377681      1.09669663846267      0.38510221919561
  C   3.86763171601915      1.49832867340191     -0.61065714003651
  S   4.08868493478828      0.99130765021101     -2.24802711032272
  C   5.38602378034180     -0.27579886601351     -2.00725569906976
  O   5.42212428531627     -1.20936261742120     -2.74282189889309
  N   6.31936914256965      0.06047192984310     -1.05463018727202
  C   6.01956619051629      0.67038518390275      0.02938491300517
  C   7.15237376498787      1.37937336512046      0.75016690416793
  O   6.99317966668521      2.71273859800062      0.24040077177697
  C   6.58870344960733      3.69057109862102      1.08178433693810
  O   6.80374815325645      3.69737322967838      2.25631345323721
  C   5.71524426472430      4.70319841083873      0.34992303206502
  N   4.34896680404696      4.25557044384959      0.51864564423319
  C   3.43146448754565      4.00594412282660     -0.55764513306072
  C   2.82861382600292      2.59403582722217     -0.45156943260223
  O   1.66520828224492      2.37996763767992     -0.28687252817097
  H   8.10595728427525      0.98723133576280      0.41007599245233
  H   7.07964820514384      1.37767096139651      1.83521733559232
  H   5.97080719536132      4.71644956387151     -0.70854307019562
  H   5.88546561371850      5.69239864257618      0.77866620806025
  H   3.92659964977655      4.51774610548509      1.39326367056409
  H   3.96610637861182      4.06862739062022     -1.50948972463894
  H   2.58898349160465      4.70264911428397     -0.58724752087213
