21
Coordinates from ORCA-job 19544optt
  Br  1.43055211771948     -0.09140207471661      0.16539899542856
  C   2.86965102806175     -1.28560196001930      0.17268923309692
  C   3.65553954622466     -1.55496437380543      1.30714238828243
  S   4.72463771417073     -0.18987353416975      1.58882156843336
  C   5.58550432913172     -0.62167317104490      0.03996935618230
  O   6.67768964315988     -0.21707123548699     -0.19884988283287
  C   4.87245001778558     -1.56904387455355     -0.93821369103623
  S   5.91087484637614     -2.42370328026556     -2.07922382470796
  C   5.32318226118537     -3.96620734111206     -1.43193852104164
  C   5.82597396137988     -4.42433140321199     -0.28121602925387
  N   5.21377904355609     -5.42960660015845      0.46569702761136
  C   4.11755288147033     -5.14241662104232      1.05303304724173
  N   3.47545982683790     -3.91595870128695      1.09601013181606
  C   4.13478061621633     -2.88683746818830      1.50259349151560
  C   3.39976336668352     -6.22425620962233      1.71549378772186
  N   2.82814104854733     -7.05766500923341      2.25398986959160
  C   3.50220397374433     -1.65879643000255     -1.03163175227195
  H   4.42816096287869     -4.39806754120859     -1.86284109517266
  H   6.76276989781032     -4.03591789769197      0.10858311548446
  H   5.08712578127287     -2.99404073778710      2.03134424959609
  H   3.00020713578703     -1.86956453539183     -1.96885146568517
