25
Coordinates from ORCA-job 19559optt
  Br  0.99552665193867      0.02335291848203     -0.50372229489443
  C   2.86521942879458      0.12871443892273     -0.36364378237203
  C   3.49242417864337      1.28893729021325     -0.07036001090414
  S   2.74862523815899      2.81414224525048      0.25016222412851
  C   4.40903991310612      3.53987104918253      0.56937437748312
  O   4.53915628918354      4.68571642600815      0.86134266124852
  N   5.40132176606465      2.58548514114770      0.41818355810230
  C   4.93954168402074      1.42235830307592      0.07702346896174
  C   5.80610412531098      0.28045509673905     -0.13561072742478
  C   5.29646006674377     -0.93501655126475     -0.46408175779155
  S   3.65488947927585     -1.36506706512879     -0.63019590088618
  N   7.18422578984954      0.43418277017826      0.03793871265106
  C   7.91668667947741      1.40618524293240     -0.78243444777927
  C   9.31070473619966      1.57569415445623     -0.20592291659716
  C   9.97673529084411      0.21451430235434     -0.06661597248665
  N   9.15815649916039     -0.73452902955795      0.67867069054398
  C   7.90580610241786     -0.57011379354125      0.67060687792019
  H   5.96275367053243     -1.76737397453151     -0.65267925225677
  H   7.36923786808171      2.34439294323050     -0.77766631627130
  H   7.97369115226733      1.03254291344366     -1.81123849549774
  H   9.23436593447480      2.04907225105680      0.77513607420864
  H   9.89447746691866      2.23291493884706     -0.85057492566170
  H   10.93525553399123      0.30121787873153      0.44504257190757
  H   10.18705878544145     -0.20939325928233     -1.05428034881725
  H   7.27853566910209     -1.25025663094605      1.24454593248533
