21
Coordinates from ORCA-job 19558optt
  Br  0.90190593853573      0.27462872769235      0.92646272884072
  C   2.69739777057165      0.12763381392547      0.40503621388634
  C   3.45458556276414      1.19190608402658      0.11439590104588
  S   2.99384201010073      2.85422881687468      0.13553633037615
  C   4.71087386765546      3.30843880097565     -0.37837449300611
  O   5.01706007342295      4.44273556550771     -0.54651567293777
  N   5.50440408205074      2.18039724256159     -0.51479134946767
  C   4.87052720588453      1.08176971220816     -0.26438040130595
  C   5.53534035689934     -0.19167570757559     -0.31371942973082
  C   6.94960914758773     -0.15495192887917     -0.51774239104553
  N   8.08964917279056     -0.15820443419992     -0.65145967882149
  C   4.90168336243618     -1.39934202654623     -0.10104412084654
  N   5.47066828365953     -2.61909575639800     -0.17914921054477
  C   6.67021103070901     -2.97493325211792     -0.89988926186419
  C   6.67411712819636     -4.46678882430119     -1.12002355527604
  O   5.80526756974313     -5.18783816789407     -0.71770474104282
  S   3.21293192667518     -1.52020351072470      0.31122236168740
  H   4.89894723830152     -3.42867810548527      0.03987614435841
  H   7.58484955947025     -2.70992435475761     -0.36252445158398
  H   6.72684024804542     -2.47490775488080     -1.87228736116597
  H   7.54428846449977     -4.85819494001171     -1.67092356155525
