19
Coordinates from ORCA-job 19555optt
  Br  5.08323551055729     -0.87144786783673      3.21563969249446
  C   5.09354922201860     -0.56427592596188      1.36449030875825
  C   4.85016879992137     -1.54364940493273      0.46850981190935
  S   4.49312689187676     -3.20834378922936      0.73065856098046
  C   4.37392477259182     -3.45445934580159     -1.08460713816020
  O   4.11813567777096     -4.51258334335145     -1.55753389896010
  N   4.61754817193855     -2.26150233819106     -1.77720592550835
  C   4.86011180365212     -1.27630070011398     -0.98319489209512
  C   5.13889242360726      0.06497974054253     -1.46483154853558
  C   5.37450178908210      1.00328982322688     -0.53833115983531
  C   5.36827969046181      0.75162820058515      0.87671196057063
  C   5.65295675722797      1.92886268544284      1.47362930510466
  O   5.84858687221031      2.94875307358324      0.60566977685908
  N   9.61296683657484      1.74016121208237     -0.56036711719570
  N   8.55883175245347      1.61638810797061     -0.33177355456648
  C   5.69755221185458      2.44651356845085     -0.69791250316166
  O   5.82948257296027      3.12824184983591     -1.65145553798944
  H   5.14524013654143      0.25850405801063     -2.52900406979452
  H   5.74590810669839      2.17424039568776      2.52090792912556
