18
Coordinates from ORCA-job 19553optt
  Br  0.87128591439598      0.03869598708086      0.08482977242888
  C   2.74571868124294      0.05047881936415      0.07946001873795
  C   3.45448112136016      1.21659441831284      0.08072952351698
  S   2.79409860059744      2.80573490620117      0.08645390092400
  C   4.47885251947174      3.52581592665902      0.08491432250338
  O   4.66274899141136      4.69457231806464      0.08803843857763
  N   5.47293167830933      2.52584139824807      0.07973807523359
  C   4.97187634374955      1.35439515266227      0.07767572205218
  C   5.66108642787928      0.08359134119527      0.07287003395189
  C   4.87710824400309     -0.98496931733544      0.07193263643679
  C   3.46846626662733     -1.19960896586322      0.07429753095451
  C   3.29776261670474     -2.54368772257563      0.07038328715717
  C   4.65691324546938     -3.26180699037399      0.06559803847948
  O   4.82943265197966     -4.43815774326386      0.06205657012301
  C   5.68104882180356     -2.11045543804975      0.06675075512309
  N   6.93584461078391     -1.75865505038335      0.06463466804413
  O   6.94133337660595     -0.35466356675868      0.06841554999352
  H   2.37700988760455     -3.10871547318438      0.07022115576182
