20
Coordinates from ORCA-job 19561optt
  Br  1.11684011023260     -0.57526099773284     -0.29827672308447
  C   2.97770920453147     -0.37898912784683     -0.13147847803312
  C   3.50330683556184      0.85984208874972     -0.14819640323053
  S   2.71420813284287      2.38876806338649     -0.29093590656398
  C   4.33127114190827      3.21712652265722     -0.10080698861577
  O   4.45430973729770      4.39426275007674     -0.11148483373397
  N   5.37538101915514      2.27474931080796      0.05644221644732
  C   4.94113395427526      1.07602619043983      0.02572935388116
  C   5.85804023124704     -0.08955830092248      0.18002380585682
  N   7.05529706303078      0.01960666474341      0.55572038504298
  C   5.25810632121120     -1.42938035565394     -0.12565047366937
  N   6.07390479306637     -2.34461761147429     -0.50743047080607
  N   5.50232899450109     -3.58352920001467     -0.88254302195013
  N   5.12320562734067     -4.18484546154003      0.40887101717650
  N   4.03223786088196     -3.83425637891682      0.83520074133317
  C   3.27184184347814     -2.78596264011055      0.33970945495626
  C   3.80596520665363     -1.58031531578086      0.00369979652978
  H   7.28349128798072      1.00723587424932      0.70505207960810
  H   4.60995578985695     -3.39371690792942     -1.35620984905491
  H   2.20746484494627     -2.91418516718796      0.47456429791025
