21
Coordinates from ORCA-job 19560optt
  Br  0.99578875352020     -0.13265334040198      0.29815622012412
  C   2.85726306186597     -0.09280388783236      0.15753348192805
  C   3.53477416843847      1.07696460081786      0.10123445288507
  S   2.90364158914296      2.69390201313437      0.12281948473578
  C   4.56514238405658      3.39083693301146     -0.03008886625456
  O   4.80656567925557      4.55960167683242     -0.07777250776615
  N   5.47070846836856      2.36331773026633     -0.08006130170938
  C   4.95935895478452      1.07522982239273     -0.00691758929024
  C   5.62706730687867     -0.09228949569192     -0.04091216670231
  N   4.94424243849042     -1.28683820573473      0.03106822315105
  C   5.68646383135004     -2.48495573793895      0.04358519390709
  C   5.28907326337743     -3.76424302474740     -0.19053358838833
  O   6.34020136291849     -4.57542410499358     -0.06986573672715
  N   7.45311600357051     -3.85944595831611      0.25650625409341
  C   7.07442683437352     -2.62024621797199      0.33076402972314
  C   3.54124793643982     -1.37681310485508      0.09569802886356
  O   2.98797584065405     -2.45657813626483      0.09768089443356
  H   6.45127887517796      2.58334663510542     -0.16192446548639
  H   6.69823304148588     -0.15153491503308     -0.14776200540554
  H   4.34329022501216     -4.21219318315802     -0.42698761290849
  H   7.80113998083816     -1.87118009862054      0.60177957679368
