20
Coordinates from ORCA-job 19566optt
  Br  0.94153378422731     -0.27628023000356      0.40668080898283
  C   2.77241237002771     -0.03116299221155      0.12513919998505
  C   3.35609965522857      1.17515567231257      0.26516554976116
  S   2.79155554182891      2.74202136357922      0.70044675547682
  C   4.51502375309401      3.38186965681220      0.49350265799495
  O   4.77150946643876      4.52328597100636      0.68018247886734
  N   5.39742160307733      2.36775632638859      0.10766268893467
  C   4.77268111612847      1.26311729737109      0.00490506729550
  O   5.43048035096113      0.13775338485506     -0.35956537835838
  C   4.73458118033574     -0.99965802126738     -0.43580187969805
  O   5.56553375971268     -1.98051872492598     -0.76115758640720
  C   5.04740420536727     -3.23787369847738     -0.97874831898807
  N   5.85218922536770     -4.18492243320595     -1.01340319500240
  C   5.29490472320226     -5.50357776700222     -1.24779882043195
  C   5.95447216033813     -6.14825940219261     -2.38927792973586
  N   6.45102127850157     -6.66978099106666     -3.27868145787552
  N   3.48866099553569     -1.14904234062862     -0.22269273736764
  H   3.96641688029240     -3.26328625896334     -1.10759330663777
  H   4.21450204419543     -5.50104622321738     -1.42985091416277
  H   5.48959590613883     -6.11855058916243     -0.36711368263269
