20
Coordinates from ORCA-job 19564optt
  Br  0.98677987619518     -0.12999542103572     -0.35562234649130
  C   2.85378926781176     -0.04233119219662     -0.24726600372869
  C   3.59341489115653     -1.10274601613924      0.09366074381637
  S   3.01700526733504     -2.69499190550208      0.48321431771061
  C   4.71582271204847     -3.33009134770818      0.32591008086884
  O   4.97261050556489     -4.48173996745623      0.45850149944193
  N   5.62468910234296     -2.30701053463295      0.05059113962065
  C   5.06418090097773     -1.14976873901102     -0.02014718099508
  N   5.78666481989870      0.00393799295899     -0.20295388136201
  C   7.21362720611297      0.00748645033030     -0.26728146076852
  N   7.96041589082981     -0.94672824989711     -0.58166919620910
  C   7.89705807302076      1.29851280941384      0.15132119078946
  N   9.13193360196379      1.46033624572489      0.15666378767224
  O   7.11901394368935      2.32599031000925      0.61279821508819
  C   5.80151007541680      2.33113095073285      0.32042561312030
  C   5.13921500194073      1.26172953892502     -0.10845596394184
  S   3.52993954609186      1.47382722241305     -0.76383301913922
  H   7.45789911350520     -1.80750090372545     -0.78366719027513
  H   9.58022878581110      0.60698912776393     -0.17824127825238
  H   5.33920141828634      3.30096362903251      0.42705093303466
