20
Coordinates from ORCA-job 19568optt
  Br  0.99648021753101     -0.08599034385753      0.19674057377034
  C   2.86584784769541     -0.01352752374548      0.03207509773047
  C   3.49129706396816      1.18271019212736     -0.03597084713645
  S   2.82854195671187      2.77544647448204      0.00010127114871
  C   4.51973311737898      3.47462999554326     -0.15222161059779
  O   4.71749846286656      4.64349082693333     -0.18182822763055
  N   5.47860553709437      2.45608457197889     -0.22267165487776
  C   4.93249013100454      1.29698106045298     -0.15983532350072
  S   5.94482262091740     -0.11087004644897     -0.22610362227584
  C   4.73343649264715     -1.36036837304811     -0.10562632692534
  O   5.36607542211245     -2.54345013845827     -0.12696890034508
  C   4.73726659305955     -3.78699269261175     -0.16817077453572
  N   3.53006620889173     -4.07172253381373     -0.28254644964561
  N   5.71550020149536     -4.75929139712963     -0.07059482069801
  C   7.08330425566952     -4.60926541247048      0.03532989988327
  O   7.82359552817916     -5.54956310167202      0.10954013610279
  N   3.47442524047877     -1.23278623071124     -0.00381365514030
  H   2.92233319825869     -3.26260531546390     -0.32202474873451
  H   5.36453059835600     -5.70767115814401     -0.09301249611715
  H   7.42014930568322     -3.56723885394271      0.04560247952526
