18
Coordinates from ORCA-job 19576optt
  Br  1.04638849787000     -0.31682061790014      0.18881731975116
  C   2.88571007939103     -0.09660635141243      0.13384989745748
  C   3.51816952157688      1.11675996680752      0.12383431434214
  S   2.58440224985067      2.59058384690686      0.14364892714834
  C   3.83459326197699      3.86797527954562      0.02382233101258
  O   3.43673081035112      4.98521857035988     -0.07874177312812
  N   5.21046449091734      3.58253419449712      0.07612371685824
  C   5.67905798493244      2.40075194617471      0.10336264637385
  C   7.12843286227063      2.28790153899848      0.15510932718022
  N   8.27108719340674      2.23300408847834      0.19780810605662
  C   4.94599976363763      1.12148099435180      0.09359754475517
  N   5.68022211707401      0.04110717954980      0.06628340371642
  C   5.04824825412542     -1.13164929087402      0.06348062091047
  C   5.43649675293376     -2.46369021226647      0.03166331815349
  N   4.33565995341236     -3.21932930597000      0.05023210810470
  N   3.25713293959816     -2.47976234866890      0.09267146826261
  N   3.66115159113522     -1.21450202289933      0.10074160108449
  H   6.42905167553951     -2.87595745567884     -0.00430487803988
