23
Coordinates from ORCA-job 19571optt
  Br  1.09022092731219     -0.22463660794755      0.05845438857583
  C   2.96752034869396     -0.14394495176779      0.05629353908267
  C   3.57256139272766      1.06640982988020      0.05553798654113
  S   2.64667503523545      2.55506265654813      0.05560310588092
  C   3.90127666664372      3.83819464898125      0.05142762494360
  O   3.48716076397223      4.95635727693842      0.04844221283569
  N   5.27845907584161      3.56234544296851      0.05220763263091
  C   5.73487614758170      2.37647572731827      0.05381287131198
  C   5.00797862127285      1.11176801856775      0.05478122110008
  C   5.71468560006490     -0.03893376028381      0.05486299867821
  C   5.08559434298205     -1.32450084324079      0.05508133556888
  C   5.80904184206820     -2.47624794327892      0.05442101006632
  C   5.20816498964782     -3.79273719057579      0.05408054931083
  N   5.80504674134187     -4.92797523173910      0.05341424083525
  C   3.75299589537448     -3.73657130795027      0.05439329632475
  C   3.06605163281440     -2.58759534562877      0.05520883217882
  N   3.67982480610860     -1.33900157447492      0.05568425151189
  H   6.82092666280510      2.27913303536803      0.05438008776000
  H   6.79728351633101     -0.01771528665450      0.05442961660637
  H   6.88794770822767     -2.38621917675591      0.05395414960511
  H   6.81656405222198     -4.80633251321566      0.05322309282701
  H   3.20970560896232     -4.67127018461356      0.05393069117725
  H   1.99043762176823     -2.57706471844324      0.05537526464649
