22
Coordinates from ORCA-job 19577optt
  Br  0.82056329649172      2.10095936889704      2.55983446153509
  C   1.62597501111799      1.47150932175394      0.98749570853296
  C   2.76084901016577      2.05288160968728      0.45009104296292
  S   3.46908801747491      3.59576146627144      0.94017217834077
  C   2.27532418716896      4.84569572278525      0.32604961221419
  O   2.66377608301688      5.96094766954777      0.19073263718173
  N   0.96381663405081      4.41624612985811      0.25120552284191
  C   0.48506140142772      3.66697275590520     -0.63877563406489
  C   -0.84711317219114      3.02794855948247     -0.37529858760465
  N   -1.76224316137597      3.44077592769718      0.36761181157635
  O   -0.87050933746707      1.80122862009878     -0.97341068474712
  C   -1.28585533078347      0.73639318717611     -0.18210282338389
  C   -0.36879410802295      0.01276844203131      0.43882460118009
  C   1.05726675145685      0.40248038179403      0.27108913094907
  N   1.70745251922976     -0.19618071722299     -0.71689561208648
  N   2.89334008805912      0.22808384969901     -1.10367056619801
  C   3.36921929695315      1.34947762307426     -0.59696866120459
  H   1.02438670405513      3.34143470684136     -1.53091652077293
  H   -1.52144579211204      4.35239585729406      0.75529658023518
  H   -2.35171700028005      0.55933226235444     -0.15280342246882
  H   -0.65222693770144     -0.85129036635951      1.02348989695852
  H   4.29278583926534      1.71717762133344     -1.02805067197739
