23
Coordinates from ORCA-job 19574optt
  Br  2.12077692252820      0.67566816111939     -2.97957546408753
  C   2.64703195851251      0.71433817575535     -1.17616194000928
  C   3.41389647649927      1.71824734098070     -0.64398357743549
  S   3.52547237697348      3.27327069486484     -1.47916396607990
  C   1.74931557075946      3.64714557579743     -1.18025076888277
  O   0.93425605290625      3.70789719268264     -2.04174695661142
  N   1.43650997612736      3.68629216470770      0.19497327138918
  C   0.78800957082946      2.58489248101107      0.74498827629411
  C   -0.09557769506186      1.74635424860274      0.18243418282929
  C   -0.25487782692748      0.38388181915426      0.75190303671586
  N   -1.18897190631173     -0.44093653640635      0.51428369641205
  C   0.94375243776544     -0.01992039404418      1.57399614475770
  C   2.10856656262869     -0.19124452618838      0.95489767856220
  N   2.13099403586047     -0.29644521667370     -0.45778173336437
  S   3.70984727412455      0.05766427443355      1.65193772402961
  C   4.05294478067038      1.57651118850954      0.67733150629887
  O   4.82982336136331      2.36382565923457      1.13839826420335
  H   2.23251114954400      3.96897975702210      0.75135448059181
  H   1.17282522527788      2.36417742817457      1.73332124101901
  H   -0.57747427841219      1.97217844924029     -0.76194440787448
  H   -1.90861556062507     -0.01272670533405     -0.07082462912220
  H   0.90171014008133      0.03557777287967      2.65520256823840
  H   1.48727339488624     -0.93262900552374     -0.90658862787401
