20
Coordinates from ORCA-job 19578optt
  Br  1.20283926402534      0.34905221197930      0.72692830564303
  C   3.02182874943177      0.11408428448132      0.30832574166043
  C   3.55325097289935     -1.13136659732735      0.20869950278621
  S   2.55544518372461     -2.55401673813288      0.38843842014649
  C   3.66881316837694     -3.81553797903787     -0.26217120460578
  O   3.20123876393545     -4.78481554106264     -0.76529475121105
  N   5.02942218423236     -3.63408452453922     -0.03249810691376
  C   5.55400993158226     -2.48636347816675      0.05155919154572
  N   4.90403825318444     -1.25927144324208     -0.08173326213860
  C   5.73211568338098     -0.15235598912219     -0.47600744291183
  O   6.83275316556948     -0.38379446658617     -0.91836138331356
  C   5.12503503362978      1.14046597876948     -0.29725363062942
  C   3.83397923800730      1.25768366396155      0.07917375582855
  C   6.99799831234902     -2.44034429504779      0.55587484440630
  O   7.23179954000501     -1.82563847095405      1.55624305530227
  C   7.94222951862475     -3.27852759024212     -0.14393318720473
  C   8.71304055811446     -3.97989979761708     -0.73116203530864
  H   5.74796732967301      1.99560263674450     -0.51186687317068
  H   3.38219215001126      2.23509496602482      0.18968251017476
  H   9.40400299924237     -4.60196683088276     -1.25064345008572
