20
Coordinates from ORCA-job 19585optt
  Br  1.14197299388648      0.20462670670671      0.49780713795035
  C   2.98192031770562      0.04673686552832      0.23850492252472
  C   3.58746045949346     -1.16134164089173      0.15390624155376
  S   2.67150619109492     -2.63438797693874      0.30772585817037
  C   3.93694600255998     -3.90969990322395      0.14375224823410
  O   3.55324483449396     -5.03137955551271      0.26736909100078
  N   5.23868475301686     -3.56710715349729     -0.12135362535096
  C   5.68277982405422     -2.37404825854322     -0.20800863414102
  O   6.94213963788093     -2.14042556503563     -0.47319142861980
  C   7.77672198460455     -3.29998073268740     -0.67539847766252
  C   9.11223031979721     -2.83098218707454     -1.00588937969970
  C   10.21788794011928     -2.47297427957909     -1.28295475447451
  N   4.95323159587825     -1.18778655088248     -0.05117283968156
  N   5.71697932112532     -0.02898723601353     -0.13710671590321
  N   5.18158386113622      1.07398301489729     -0.04623902601816
  C   3.75826616776823      1.26241537885786      0.13726869432498
  O   3.33577118110293      2.38063951701235      0.19509807791845
  H   7.35491671130301     -3.90184848476222     -1.47993996475051
  H   7.77519067209951     -3.90039403153744      0.23423126232027
  H   11.20156523087899     -2.15205792682256     -1.53240868769581
