19
Coordinates from ORCA-job 19584optt
  Br  2.19604370799326     -2.22612408001533     -1.85144602516951
  C   2.93214046023309     -0.79732416735119     -0.91123482337044
  C   2.93428646609694      0.49174436667632     -1.30017873492762
  S   1.88892691388478      1.17243301907944     -2.55212698855795
  C   0.72356700521755      2.15708394098576     -1.55203530659470
  O   -0.15426183903035      2.72937076469309     -2.12465734613142
  N   0.96744709322430      2.14188025825697     -0.17285907816171
  C   0.66243835138060      3.13638871440364      0.54938528834560
  O   1.04363009468114      3.20498970005457      1.84574109640756
  C   1.99617142977764      2.21901597840080      2.13093637303730
  C   3.19674830852420      2.34424602791197      1.57148688373097
  C   3.61719068879009      1.17053371943587      0.78614257567307
  N   3.48563362146179      1.43436261914721     -0.45998375719066
  C   3.61450024958086     -0.22053068801048      1.28778730237505
  O   3.76808574866759     -0.58299807761254      2.40805477746472
  O   3.46330120643136     -1.15453361292857      0.27338669079410
  H   0.10894932217753      4.02063960226883      0.23787881675048
  H   1.59542670700033      1.31594526606995      2.57356356382706
  H   3.43077446390728      3.28487664853368      1.08815869169811
