22
Coordinates from ORCA-job 19580optt
  Br  1.84033381339002     -1.68919474966627     -2.15414611364043
  C   2.66977974888514     -0.58482868240588     -0.88020654768124
  C   2.07120602708896      0.48445728478255     -0.30897487118979
  S   0.36000838669824      0.81197217519247     -0.60298731845307
  C   0.39758508403483      2.27280621183305     -1.72158884141563
  O   0.93334243986373      2.25019882215724     -2.78470375996252
  N   -0.40286804792406      3.30164285881635     -1.26982011981637
  C   -0.50465191800884      3.71843231407760      0.06403564012566
  N   -1.40724665983741      4.53156678111836      0.40050728096880
  C   0.59986969711393      3.17008701501738      0.91864678697417
  N   1.78025254862098      3.37234551237222      0.51957451307445
  C   2.80180772514079      2.55401824300371      1.01108193489624
  C   2.89975105615786      1.25982240186228      0.64980189171747
  N   3.97423169956686      0.50692537255479      1.15749771861714
  N   4.60049740662730     -0.46910488302149      0.51447036772097
  C   4.00644823913277     -0.98730627273040     -0.50053984699196
  H   -0.70394330981898      3.96578555019411     -1.97211831271454
  H   -1.31798780991005      4.79031235920146      1.38042827037919
  H   0.34020009281371      2.56428341596228      1.78964655220407
  H   3.61583975919254      3.02959365868931      1.54483535027861
  H   4.50896138706068      0.90240982601022      1.91384061232434
  H   4.50958263411097     -1.79122521502140     -1.01628118741554
