20
Coordinates from ORCA-job 19589optt
  Br  1.39539867495934     -1.00078165285777      0.47473713857220
  C   1.11195660606770      0.57169212914023      1.48920723021233
  C   2.10852713142764      1.53540503836087      1.62443866563473
  S   3.66693185546836      0.90399083236612      2.08880903728472
  C   2.97521086156101     -0.38572805097193      3.21615662747614
  O   3.74683391787628     -1.12110465717308      3.72541869983193
  O   1.64929377817456     -0.44088707433265      3.51477393723046
  C   0.65195622448962      0.32460417848259      2.87751128767101
  N   -0.28573330369498      0.70077095745927      3.60174593915498
  C   -1.27061824095772      1.60863292590035      3.16395124971805
  N   -2.39030666176401      1.23110190997252      2.73039312810447
  C   -0.71598444977882      2.98252510058850      3.32474689221491
  C   -0.82914286628079      3.92828172222318      2.40108746936155
  S   0.46188047244588      5.11970746059473      2.24727895548557
  C   1.73282330998408      3.96865721668503      1.74531485969927
  N   1.62364836412663      2.74131089348255      1.93701463552463
  H   -2.98731397099606      2.03312286104296      2.53501799903947
  H   0.00899546515246      3.09854524818059      4.12218376400882
  H   -1.49634371488232      3.84121947954337      1.55193075984141
  H   2.55198654662114      4.44793348131253      1.20628172393332
