21
Coordinates from ORCA-job 19587optt
  Br  1.76590658791052      0.72130589975550     -3.06869656977255
  C   2.82748348509567      0.62994346254949     -1.54551884721961
  C   3.52068865757700      1.67137876912208     -0.97637349074581
  S   3.17645718928480      3.35104578921013     -1.32622486539012
  C   1.49927889644156      3.79140812437829     -0.75217763708268
  O   1.23534450810616      4.89534974520360     -1.15260805758232
  N   0.58969915853488      3.10984476933618      0.01799828922857
  C   0.42375988016690      1.95051830300794      0.83924700954810
  O   -0.63552335771964      1.87413259082712      1.42371028605755
  N   1.46288083812689      1.08549204929418      0.84254850586764
  C   1.34181380969193     -0.04338953844972      1.54188219839788
  C   2.35380709796412     -1.00498029749250      1.45085521120722
  C   3.27934989371593     -0.58190469259306      0.44435897176258
  N   2.77507750961799     -0.51082786886953     -0.81861335970734
  C   4.39948200085160      0.26877149652887      0.62422552313766
  Br  5.63309735394947     -0.08183750386783      1.99085774147817
  N   4.42286408262061      1.38965258372299     -0.01642531823263
  H   -0.24120051573089      3.68661906983873      0.10046232619446
  H   0.51196983725879     -0.17922847530413      2.23641384161618
  H   2.55540796535028     -1.73110227350481      2.22134064685159
  H   2.00935512118543     -1.15019200269354     -1.00826240561453
