20
Coordinates from ORCA-job 19590optt
  Br  0.80128241065553     -0.06927845468703      0.06212594904005
  C   2.66707944829587      0.04644868589565      0.19863783835227
  C   3.43994160474807     -1.03372895928014      0.02055428925648
  S   2.90434478206845     -2.65291837355147     -0.35131595388049
  C   4.56139303619247     -3.26120692792030     -0.14243674255754
  O   4.90771895143421     -4.38369451640000     -0.24280780338364
  O   5.43295472841949     -2.24500543956602      0.15984010540527
  C   4.88209785965762     -1.01404631409217      0.20513542673267
  C   5.62049239107248      0.11427288401482      0.33503709808065
  C   7.09669086928189      0.07521199031289      0.37893529729353
  O   7.74734571342679     -0.90863718328958      0.61789536477348
  C   7.83210988542569      1.37533563123171      0.05078974484970
  N   9.09161942630186      1.44890767711110     -0.00848615520452
  N   7.04608709554037      2.47900693588295     -0.20571107807107
  C   5.67773665602471      2.51527501643156     -0.05862457096978
  C   4.97005051792830      1.41815444097109      0.24521310256186
  S   3.27486153638875      1.59717633254584      0.69155504669954
  H   9.48738775018139      0.53181513633485      0.19738642441696
  H   7.54670171761426      3.32061728505966     -0.44584359802086
  H   5.21510361934176      3.48529415299461     -0.17487978537455
