20
Coordinates from ORCA-job 19595optt
  Br  1.05493636347413      1.49214598130316      0.13811097004787
  C   2.81498105923170      0.85975408676087      0.11422412381192
  C   3.10404195019581     -0.47485667203258      0.09149957272278
  S   1.75384731771960     -1.59473057123804      0.06908677579412
  C   2.23280292625137     -3.31897637186427      0.14154912359844
  O   1.28971831395361     -4.04100275725491      0.18180784127916
  O   3.45666917856255     -3.87452372059054      0.15763817772086
  C   4.71972846933749     -3.38098565705763      0.04896475068190
  C   5.15746073281812     -2.12819948989246      0.01694354457263
  N   6.53040862135334     -1.82748093355521     -0.05515550349947
  C   6.78155476221120     -0.47830908662829     -0.02814928970525
  O   7.84548484606362      0.08537841728159     -0.05156334386740
  C   5.42381768245139      0.12571330786986      0.03781037457135
  N   5.14627605550755      1.43737097513944      0.06320973756889
  C   3.84004159434124      1.92247892677796      0.11212993787666
  O   3.61586236522525      3.10720632597502      0.14378792075431
  C   4.47641908727706     -0.84451894418826      0.05964904771885
  H   5.41692644937854     -4.20570777818798      0.00815923767058
  H   7.26811534926889     -2.51229575226975     -0.06175712744555
  H   5.89590687537745      2.11953971365204      0.05005412812735
