23
Coordinates from ORCA-job 19593optt
  Br  0.80410111933467      0.49906514266696     -0.06378557260453
  C   2.65393872652249      0.21570290141286      0.08761940820137
  C   3.52512915477728      1.22269502132918     -0.08456443679576
  S   3.15102039482835      2.88880119391843     -0.44985670447617
  C   4.88411518910464      3.28921155833564     -0.46443681701803
  O   5.35016221618861      4.35425180101761     -0.66128570335052
  O   5.64688767156794      2.18107360100411     -0.20941360333739
  C   4.94991506135436      1.03620059640669      0.01177654502103
  C   5.61882987880404     -0.10523349291801      0.28863805519975
  C   7.11618135475849     -0.17904106625788      0.32831517151568
  C   7.65942874069581     -0.82532006528917     -0.95344999407823
  N   9.10421708692454     -0.91777743338780     -0.94068044727997
  C   9.87419870324036      0.17119107533427     -1.16943925127403
  O   9.43534829622955      1.27328223650499     -1.40388882756558
  C   4.91441469666524     -1.35479489059731      0.52303694129208
  O   5.45516347982308     -2.40493000709284      0.76704649913216
  S   3.11632685034255     -1.40000825992599      0.45271560883628
  H   7.41368743760931     -0.78790243631463      1.18341699290832
  H   7.54682549730506      0.81569387782561      0.42758769761499
  H   7.36682759934569     -0.21825949989972     -1.81176587394265
  H   7.24701564779168     -1.82610751189720     -1.07194283955078
  H   9.54986539167375     -1.79058314496074     -0.71591401069812
  H   10.95339980511238     -0.04521119721506     -1.12772883774988
