21
Coordinates from ORCA-job 19597optt
  Br  1.19020903018531      0.18519296512871     -0.27755669030020
  C   3.04875089681018      0.05637077795851     -0.12857482884495
  C   3.69429043281601     -1.13572999668459     -0.09619459388054
  S   2.76572189169269     -2.60998428577718     -0.17378984765343
  C   3.98491121059480     -3.88469712139668      0.00851962897082
  O   3.60776195517376     -5.00686799887576      0.06538854846512
  O   5.30618042457668     -3.61170526949884      0.07004108334044
  C   5.94023495497269     -2.38629121780666     -0.00344126467293
  N   7.18987230721563     -2.35110388523760     -0.05006689499904
  C   7.93711810212665     -3.60059573791144     -0.03421882406714
  C   9.37730217469018     -3.35444775867683     -0.07478532085426
  C   10.55964682022483     -3.17864835150924     -0.10834656140199
  C   5.12612243832296     -1.16079829493034     -0.00086231700168
  C   5.76561260831073      0.02420141113351      0.07637645337828
  O   5.14641213318127      1.19498422347028      0.06311567648777
  C   3.76516734312053      1.32234354422723     -0.04681333462566
  O   3.30313018193645      2.41738428289214     -0.05846211752422
  H   7.65205665857591     -4.22050542175167     -0.88964836551309
  H   7.69183096535458     -4.18185877668952      0.85949772584266
  H   11.61063460692452     -3.01746542715540     -0.14014110799850
  H   6.84103286319355      0.10122233909143      0.15296295285253
