20
Coordinates from ORCA-job 19608optt
  Br  1.60844673856778     -0.53870424839317     -1.07817192267167
  C   3.04934215367917     -0.98220643948698      0.02449404454942
  C   3.05134446147848     -1.98322660576182      0.90838297688685
  S   4.58050735755368     -2.10901098015519      1.80140132582550
  C   4.56064104322868     -0.37743901338648      2.17821379945075
  S   4.92344290848669      0.28308552080187      3.79245241419062
  C   3.44314379363846     -0.03629561332546      4.82495390072600
  O   3.28919094992061      0.66156064719496      5.77456773518662
  C   2.53315904737307     -1.21711397166819      4.52956565083783
  N   2.95789041944206     -2.39893485089182      4.44466121279327
  N   1.18326207864656     -0.91985177047038      4.38267733056438
  C   0.38598611268076     -1.35741477180166      3.30473797995909
  O   -0.80828597339193     -1.36873364756618      3.35205478107583
  N   1.16671455650108     -1.48029475301079      2.16412004035091
  C   1.91124211964029     -2.40962808797712      1.76462033004032
  N   4.31664942710583      0.48031175988996      1.27478720839380
  O   4.07800271898519     -0.10998291221208     -0.01673136297263
  H   3.97461103773073     -2.44268545468328      4.49113445889541
  H   0.75314344302685     -0.24608257831622      5.00095817607479
  H   1.91156560570592     -3.41635222877995      2.18011991984285
