17
Coordinates from ORCA-job 1960optt
  C   1.03485273306108     -0.18279113344506      0.20806374268262
  C   2.54443437172610     -0.05382950077277     -0.01400970157170
  C   2.94910651563436     -0.61753670204272     -1.37964336340980
  C   2.97024191506966      1.34111668921114      0.11552740751974
  C   3.30553932413244      2.49359498422740      0.19998035768211
  C   3.72529927803191      3.85115370032732      0.33334468362885
  C   3.22094225949211      4.86060674267197     -0.37107944199199
  H   0.74522093843287      0.21014285322555      1.18170691559113
  H   0.73706944283939     -1.23066676026147      0.15037899485792
  H   0.49517656117824      0.37289974787904     -0.56004011598779
  H   3.05895088511358     -0.62720882696726      0.76294238007173
  H   2.44580015595208     -0.06770439717617     -2.17603146267747
  H   2.66211782303596     -1.66774327970329     -1.44973252524424
  H   4.02409748432925     -0.53693230068301     -1.53509950575032
  H   4.50381828945157      4.04058722520688      1.06519669681387
  H   2.44438498346698      4.69958155985229     -1.10740035913635
  H   3.57894703905238      5.87072939845016     -0.22510470307831
