21
Coordinates from ORCA-job 19604optt
  Br  3.06595715051410     -0.02660977180260     -2.80152064763045
  C   4.37628680262281     -0.86753160942103     -1.76176362814472
  C   5.33181416962228     -1.66312604231132     -2.25777604000598
  S   6.57526615631138     -2.28483763841098     -1.14150544419014
  C   6.95583659609226     -0.64592743017726     -0.60869846818856
  S   5.79223036618987     -0.03334420259046      0.57184912798335
  C   4.27608430354915     -0.48573880806129     -0.29143685015869
  O   3.23510357504147     -0.40705470642747      0.28365612855634
  C   7.76277857019153      0.17747386261800     -1.31993765492723
  N   8.19360907782439     -0.02873911734752     -2.60313252452728
  C   8.50345152450416     -1.12412103758016     -3.16032093765936
  N   8.49054802702629     -1.23570509448118     -4.53601430572561
  C   7.93475988262752     -2.39932802096248     -5.14250901506570
  N   8.29851702837923     -2.88860638823895     -6.23766826528210
  S   6.62819026167301     -3.24073016287230     -4.23701845607106
  C   5.70380667140323     -1.75860431282401     -3.71736381511674
  O   5.54130255358503     -0.85771502844892     -4.48069608763183
  H   7.90363592053463      1.19015137367430     -0.95656020331682
  H   8.78697404176621     -2.03352775688539     -2.63733552282441
  H   8.22105046443957     -0.37522884047659     -5.00329198204102
  H   9.12779685610182     -2.41114926697238     -6.59295540803194
