20
Coordinates from ORCA-job 19601optt
  Br  1.04996049515559     -0.25018282229351      0.08698397728745
  C   2.91105071238949     -0.09572641056624      0.07443057462321
  C   3.52466599278936      1.10493792441173      0.07028808839807
  S   2.65852965561088      2.60896699852666      0.07313971162321
  C   4.10647194446259      3.66218227418835      0.06551571522082
  O   4.02921011989417      4.84863306931216      0.06450507796991
  S   5.66447395323626      2.80566508333235      0.06047556319830
  C   4.97503710527232      1.20037268449373      0.06361011315831
  C   5.64762666381233      0.03529492869764      0.06189333495839
  O   5.05806705527974     -1.16055191145699      0.06391085205831
  C   3.67945998531251     -1.33226260837573      0.06880593244369
  N   3.18660329974414     -2.48594328835812      0.06807867746953
  N   7.04135141031969     -0.09369413670356      0.05859859619133
  N   7.83543702114371      0.96734861814504      0.05891834145005
  C   9.05000258840948      0.45372326775653      0.05658604201998
  C   8.93520698291376     -0.94774833945841      0.05501502617158
  N   7.65535768062818     -1.26722756237907      0.05635271475598
  H   3.90943887431277     -3.20158720587891      0.06360909134715
  H   9.92212345498697      1.08451768371231      0.05635120142388
  H   9.69592500432601     -1.70871824710597      0.05293136823087
