21
Coordinates from ORCA-job 19602optt
  Br  1.46410730888837     -2.67646021455633      0.88522055245528
  C   3.16535268195531     -2.20126126197029      0.29051455076235
  C   3.45400647591951     -1.79748110073707     -0.96936087377445
  S   2.44267363171408     -2.25675140164100     -2.36045407401542
  C   3.42482902434396     -3.83488922148124     -2.39808850818570
  O   4.48608518209565     -3.89186876429210     -2.91156758069158
  S   2.75342858334021     -5.20580455325741     -1.40137854151417
  C   4.17030176649132     -5.37240038195356     -0.37355619822875
  N   4.22575940546230     -6.15278389496328      0.62007988540398
  C   5.15776632979097     -5.82828683409633      1.59850344452826
  C   5.20177726963174     -4.57840793981071      2.12080236966284
  N   4.22304875664693     -3.70089000038134      1.69327247751601
  C   4.32582459912889     -2.56711596163539      1.13097222023739
  C   5.64742835138099     -1.94208935195780      0.80357175183334
  O   6.62837615349466     -2.10894723064037      1.48415220482826
  C   5.66836416160462     -1.21821927959653     -0.49450516332899
  N   4.67775453562087     -1.20678008700530     -1.29373713357692
  H   4.97170618262209     -4.67208828230663     -0.61919583979426
  H   5.81003363950113     -6.61240445282500      1.95836594803237
  H   5.92291494458512     -4.29134363584464      2.87384893666501
  H   6.58446101578119     -0.70272614904761     -0.76846042881484
