19
Coordinates from ORCA-job 19613optt
  Br  1.09894671848746      0.14081177784965     -0.10894684090225
  C   2.96610766263785      0.05354337459504     -0.09012145309047
  C   3.62371550866055     -1.11795396516993     -0.08187119499266
  S   2.62604555238171     -2.58726121059548     -0.08339632231100
  N   3.67553799902516     -3.84865489506839     -0.07758390330033
  C   4.92463255994444     -3.65698085434995     -0.07283411166419
  C   5.99018460615884     -4.70294347180892     -0.06890452553028
  O   5.92587801495249     -5.88406338961420     -0.06958741564687
  O   7.16305552673043     -4.00052320464404     -0.06527198921447
  N   6.92851860650148     -2.61346950760431     -0.06535364900504
  C   5.66247380996123     -2.40609224351729     -0.06991937433907
  N   5.03102553349371     -1.17334570520020     -0.07157643215449
  C   5.81109888259997      0.03013788335735     -0.06789043007108
  N   7.06124361730647      0.12893923729317     -0.06224327886506
  N   5.04816130903126      1.18544999722102     -0.07049341034853
  C   3.68216376201578      1.33640505645980     -0.08231643189466
  O   3.15813563463186      2.41938064250291     -0.08465783166252
  H   7.56396713626608     -0.74893583154411     -0.05990615171004
  H   5.59510755921318      2.03655630983790     -0.06512525329699
