22
Coordinates from ORCA-job 19610optt
  Br  1.56623086191655     -0.56991717759710     -1.09279517168413
  C   3.16869751230110     -0.19895746780301     -0.19174939605710
  C   3.55552367528416      1.09397999251686      0.09680766392210
  S   3.40000470214002      2.70410837725641     -0.64916365641806
  N   4.99996851836015      3.16138196023453     -0.30547702584776
  C   5.60456399492108      2.30129220872140      0.44418098909400
  C   7.03775153715325      1.80231326261930      0.58084092977366
  C   6.87004459183212      0.45002289142028      0.95021009286895
  C   7.53015154305784     -0.64582764757925      0.38783775581859
  C   6.52554065358041     -1.70669097123513      0.16260807191516
  C   5.28988059710295     -1.17067552055782      0.50740398826121
  N   3.94862180819151     -1.29980026274681      0.09353207547306
  C   5.51598888341723      0.09685043289914      1.09885215548669
  C   4.76409415089773      1.16084460512159      0.78375306492236
  C   8.78094828962174     -0.31430694668982     -0.17874315119745
  C   9.12222953545183      1.02953973636671     -0.30476143414058
  C   8.23898557105545      2.10415380217578     -0.02817510754478
  H   6.71355349279477     -2.63764657100770     -0.34891413804007
  H   3.61078305102881     -2.17885464530979     -0.27158578904389
  H   9.43343765419284     -1.06252750979219     -0.61170092926414
  H   10.06968748385340      1.26710556837594     -0.77215181228472
  H   8.47231189184500      3.09461188261067     -0.39480917601309
