18
Coordinates from ORCA-job 19619optt
  Br  0.83948397804716     -0.21757085256546      0.07543661638256
  C   2.70833136470432     -0.10493839899676      0.07306222265900
  C   3.47236341459693     -1.22840077891611      0.07014757322179
  S   2.90573198416742     -2.86992823581210      0.06697866051503
  N   4.43307751183142     -3.49535140788544      0.06488266597476
  C   5.36016742365756     -2.59425491375002      0.06654636373500
  C   4.90172179675838     -1.21505936335595      0.06939618192731
  C   5.66022709458170     -0.05215484343719      0.07075467381002
  C   7.13700103791237     -0.13484817825220      0.06993020820805
  O   7.75507241932065     -1.18401164774735      0.07043372394293
  C   7.79309391834710      1.18341728200944      0.06820689351698
  Br  9.67885030120097      1.17240465628758      0.06449686133100
  N   7.17798303139261      2.30642000226656      0.06907683473459
  C   5.83819113537337      2.36523361610946      0.07124866975967
  Br  5.07448591734648      4.09769610423108      0.07275722053842
  C   5.04657790920628      1.24971504686553      0.07203108239863
  S   3.31232470498727      1.48101924492424      0.07491705445231
  H   6.40031505656797     -2.87738733197531      0.06569649289193
