19
Coordinates from ORCA-job 19620optt
  Br  2.44383457777690     -0.47772018645462      2.00593007416080
  C   3.89007164317249     -0.37345504981532      0.82462191817172
  C   4.33381815729085      0.81871709409384      0.38238910476630
  S   3.71404203039174      2.40444176438495      0.75603348154561
  N   4.83510029794982      3.20864083044135     -0.21044472511464
  C   5.65551525404334      2.41866777811157     -0.79285326211122
  C   5.46893090624723      1.00114319315163     -0.52800902864516
  C   6.12387568657250     -0.09472207087748     -0.94085572228306
  O   7.19415914680636     -0.24862060174871     -1.73388197959511
  N   7.15942401646029     -0.72173727802661      3.30074605004661
  N   6.85096895378549     -0.66321817101533      2.26130115153249
  C   7.43385739085227     -1.63913507195469     -1.80015283494808
  O   8.32973309826284     -2.08448741219595     -2.42061184277477
  N   6.46008880932352     -2.32467343848817     -1.02477433947807
  C   5.70720045447152     -1.41615851321771     -0.52548218195407
  C   4.53678818433700     -1.61661695525403      0.37923222592599
  N   4.13919007474173     -2.76577033382215      0.73628539106518
  H   6.42761886195426      2.81194009361696     -1.44295199644640
  H   4.72578245555963     -3.49023567092952      0.31347851613586
