21
Coordinates from ORCA-job 19623optt
  Br  0.83836891775030      0.17354138990461      0.31731080380241
  C   2.70312991250685      0.08600960694761      0.11633490780569
  C   3.44745887779054      1.20300181402397      0.06733849827192
  S   2.88939797362619      2.85842121953242      0.16334988335510
  N   4.43396307625691      3.48421799895485      0.10968503565353
  C   5.34090384584333      2.58236156904552      0.02980286236632
  C   4.89084326450986      1.19033598497689     -0.00888108657704
  C   5.66049005114939      0.07372334382682     -0.09844958714911
  C   7.15607080889942      0.14417416791666     -0.06837928029382
  O   7.66706651257549     -0.12336524280884     -1.37626935896925
  C   9.01648031701751     -0.24561045781226     -1.46245163334318
  N   9.64059325646636     -0.49382899982566     -2.51710115620193
  C   5.09353265374687     -1.27190255400033     -0.23156521614755
  N   5.69798872692028     -2.35784057031703     -0.47993213953037
  S   3.34158737951869     -1.50514691541082      0.02460032978147
  H   6.37752592471810      2.88893429765155     -0.02603414823800
  H   7.53625589144189     -0.60902220800059      0.63108767635212
  H   7.50021345154702      1.12106057575389      0.27038887981817
  H   9.54352265598537     -0.11154485728187     -0.51630323865735
  H   9.00505805945705     -0.59326116955702     -3.30987829946536
  H   6.69354844227248     -2.22325899352037     -0.63865373263374
