20
Coordinates from ORCA-job 19626optt
  Br  0.81804403723983      0.02253031517308     -0.00196794939235
  C   2.68998996372355      0.07037311768209     -0.11024592702743
  C   3.41410793585351     -1.07280167872024     -0.09112089192916
  S   2.56979760062617     -2.59699997254656      0.01193595544783
  N   3.70050562086981     -3.76731509264156     -0.06494862194062
  C   4.95816985212372     -3.54029317475941     -0.13772333934685
  C   5.58246927987661     -2.23889046263915     -0.13904168603527
  C   4.88199561587346     -1.06993887541472     -0.14182506133276
  C   5.50005314193064      0.25109219632714     -0.24079743539300
  O   6.86650095784411      0.39867960980816     -0.37724865367490
  C   7.69442061517569     -0.22006189231089      0.51359380861422
  N   7.81607371206540     -1.45657185354385      0.65020987403777
  C   7.08256107432103     -2.31694208737159     -0.18445867970764
  O   7.62566047721086     -3.15932895378977     -0.83870568752529
  C   4.77828162846510      1.37587260077405     -0.28496110144884
  C   3.31054076851090      1.39124909163810     -0.21436604696883
  O   2.69058136898603      2.43257875378583     -0.23617559870682
  H   5.61307970354153     -4.40330647607591     -0.19257116386748
  H   8.30002466286378      0.47925298740442      1.08194629590927
  H   5.27214198289821      2.33382184722081     -0.37852808971185
