22
Coordinates from ORCA-job 19624optt
  Br  1.03030466947002     -0.03189848082500      0.81808462375991
  C   2.82383006016095     -0.01357716533049      0.28336164039640
  C   3.51925327538306      1.15109422953781      0.24104114574924
  S   3.10722692534297      2.80060827650096      0.57865928451972
  N   4.65516967714644      3.33816984272737      0.27347968083113
  C   5.46728397299484      2.40016944678059     -0.06207249605031
  C   4.90016465756234      1.05666073988650     -0.10838535282711
  N   5.54012254136420     -0.03445194797366     -0.39117611698342
  C   4.85113947068389     -1.22568789790063     -0.36902077370071
  N   5.31978402995987     -2.37625839320657     -0.62790022351008
  N   3.45128898408131     -1.17216937270815     -0.01083517468203
  C   2.74403403091690     -2.42506809046000     -0.03458393562064
  N   1.90907743363135     -2.60675367618706     -1.03402952181559
  C   1.25080315381683     -3.76595749051422     -1.03359713374572
  N   1.35825119682572     -4.73043301323561     -0.13311967426576
  C   2.21524842673245     -4.51652799213363      0.86373598753453
  C   2.95723739066705     -3.35479517153626      0.96572857608103
  H   6.50308958312371      2.61867478453349     -0.28895809350513
  H   6.30257540938616     -2.28458880843837     -0.86596769040184
  H   0.55757901981349     -3.92883000785002     -1.85048016293173
  H   2.31188932179980     -5.30355738197325      1.60284088384433
  H   3.67264676913659     -3.18382242969378      1.75619452732377
