23
Coordinates from ORCA-job 19637optt
  Br  1.19141318590752     -0.58570108474990     -0.77450119806670
  C   2.84751923336902      0.12640232100882     -0.25357111775541
  C   3.10592540581978      1.45542862065892     -0.30661053840819
  S   1.92266667572226      2.58704832188555     -0.95019025424784
  N   1.64805743370795      3.55665592696138      0.46095044708813
  C   2.61351286226573      4.30023080871134      0.81779740706401
  C   2.45194579663254      5.16577999352505      1.95277572072556
  C   2.36609266874849      5.90850278057765      2.88847026688795
  C   3.90802504127159      4.45198518974261      0.05622385423136
  N   4.31580912615696      5.58138561629673     -0.32425364456474
  C   4.80374086266701      3.26627365824055     -0.22278739135859
  N   5.99726135347852      3.41259609343681     -0.59171713115328
  N   4.34602211171838      1.96174601863615      0.10113444036461
  C   5.30169271521518      1.07417216343069      0.56933079548618
  C   5.08980834876513     -0.24163061233332      0.65180038434764
  C   3.84424267146858     -0.85487195434077      0.21636218296074
  N   3.56832339201987     -2.10009788228928      0.23255385878320
  H   2.27092551524888      6.56099345521048      3.72474399464841
  H   3.70033725630651      6.33688967362340     -0.01993617414877
  H   6.20139825730404      4.40787210963720     -0.69312825562807
  H   6.23103844707487      1.53905638975158      0.85810181818962
  H   5.86659857932693     -0.87677929840249      1.05513840941996
  H   4.35564305980417     -2.63393830921923      0.59731212513420
