24
Coordinates from ORCA-job 19633optt
  Br  1.12394948242703      0.06064231056875     -0.02490594033755
  C   3.01246976034830     -0.03577028627680     -0.02615109967564
  C   3.59915446818987     -1.24914532334495     -0.10731632785792
  S   2.64890992597361     -2.72294094575556     -0.16279235923804
  N   3.69811323255719     -3.95823066998462      0.03407325418087
  C   4.97310447426489     -3.81411209648612      0.15061381299398
  C   5.67046026899447     -2.54863312226095      0.03712361886225
  C   5.05133637648494     -1.36597663073057     -0.14728138764308
  C   5.84383260912612     -0.10923948297001     -0.34568842600181
  N   7.05926185869174     -0.05618185428275     -0.72909633014685
  C   5.13104027783598      1.13353316997250     -0.08420015708730
  C   3.79445831681357      1.18722668464953      0.05049153388905
  C   3.10778013502504      2.51131699737484      0.29117985092880
  C   2.56452610400661      2.60584979144631      1.64628770559174
  C   2.14116610082067      2.67176999382648      2.76373334253068
  C   5.76944327473508     -4.99098867577443      0.36358773219094
  C   6.47991132070865     -5.93842714561272      0.54311259731602
  H   6.75082614004794     -2.59019293733592      0.09200470192214
  H   7.43603242608181     -0.97701552034163     -0.94864205738544
  H   5.73343927454544      2.03212032165622     -0.05938981816375
  H   2.29941102621208      2.65266030957589     -0.43001610545792
  H   3.83044096689624      3.31275826609984      0.13623362723978
  H   1.75942941962800      2.73019076305152      3.75482249885673
  H   7.09850275958463     -6.78921391706483      0.70521573249231
