23
Coordinates from ORCA-job 19639optt
  Br  1.09567603298100      0.06590563567895     -0.46628846334049
  C   2.96292367048414     -0.01102088183866     -0.25045313020647
  C   3.57428132905642     -1.22252170999178     -0.29310459463683
  S   2.67972307792849     -2.71014923924228     -0.43370693303348
  N   3.77663495268961     -3.91753120199510     -0.24678537467162
  C   5.02864023486181     -3.74072537881835     -0.02632719293301
  C   5.88516576049281     -4.96645026761146      0.11812081957068
  C   6.94458786367826     -5.06728845576605     -0.95818552693406
  O   7.15753700090986     -4.21349811741567     -1.77158818053837
  C   5.67336403314359     -2.44899754762727      0.01281914964590
  C   5.01617310041325     -1.28985348487319     -0.18778848388226
  C   5.74768681556748      0.00265463193744     -0.33787956798379
  N   6.92087363398768      0.12125072653801     -0.80666039941472
  N   5.06217273688001      1.16246626325117      0.03178020101354
  C   3.77507626107908      1.15192191045477      0.04198114038383
  C   3.20613132595594      2.48728410404795      0.47039867499661
  O   2.05327268580427      2.71718935785371      0.68261840602352
  H   5.26476822252528     -5.86369428094484      0.09097174342923
  H   6.40703263149573     -4.96914309285478      1.08288355023513
  H   7.53822711132645     -5.99931146429762     -0.94701410548678
  H   6.74611598409462     -2.42723665439339      0.15953281196823
  H   7.28668592681052     -0.77704366243551     -1.12054253530175
  H   4.00424960783362      3.23879281034398      0.59421799109694
