23
Coordinates from ORCA-job 19635optt
  Br  2.11269377320379      0.97018538206514     -0.08652189757336
  C   2.47234897947171     -0.86494801831058      0.18154865973929
  C   2.61760163520625     -1.39818979366641      1.44244613466842
  S   3.95175951239217     -0.60392854800869      2.29682144107281
  N   5.09558211763759     -1.00973234957278      1.09981983758340
  C   4.84765039202982     -1.46631704688965     -0.05322423870728
  C   5.89688673763985     -2.34360249605302     -0.73997414710661
  C   5.29701053345363     -3.69886358393873     -0.45343548954141
  N   4.94246930928322     -4.00586475027709      0.77118425830879
  C   3.89533445337018     -4.84189439767262      0.65226989896474
  O   3.05576619409582     -4.97715057213494      1.74143115545020
  C   2.54907875523358     -3.77133774201917      2.12654202295539
  N   2.66343048110538     -2.75387912727033      1.41562154400453
  C   3.64072511898529     -5.15206348072253     -0.65280010662924
  N   4.57273996440523     -4.41779686589660     -1.34894121789134
  C   3.46408783080701     -1.42452796411481     -0.76543883437341
  N   3.42538653506369     -1.65229399545692     -2.00542403254211
  H   6.85824208187730     -2.20762945043060     -0.25353329610158
  H   5.96179450604194     -2.15329824221753     -1.80847739105428
  H   2.04520921043348     -3.85201953791489      3.08779066464944
  H   2.89928806248785     -5.76854491775650     -1.12674825243468
  H   4.57281776400836     -4.26616248810598     -2.34428606015057
  H   2.47809605176682     -1.52714001363474     -2.36267065329115
