16
Coordinates from ORCA-job 19641optt
  Br  1.13371938901761     -2.10557895375479      0.87247657756182
  C   2.40483783093029     -0.93661765625030      0.15980882908268
  C   2.21754103247024      0.39368873737679      0.10984410935856
  S   0.86627999120612      1.10487685858562      0.97254451147716
  N   1.10980356783635      2.71857377054808      1.19284901100682
  C   1.70537124265778      3.57663073702932      0.47038796214200
  C   2.24626777952407      3.34518758062754     -0.87840531212249
  N   2.82241493600942      2.32356864650297     -1.34413946599889
  C   3.23135635438346      1.19308113950809     -0.64974068291789
  N   4.42930195868879      0.81092802249882     -0.84209773129793
  C   4.82102705795924     -0.44513502873720     -0.37052673165421
  O   5.94270408786838     -0.71838653201353     -0.07337665678683
  C   3.70561605631845     -1.51014793870580     -0.25986263010031
  O   3.92236063025396     -2.67747993986772     -0.39062565170486
  H   1.65498024824417      4.60884109300322      0.81089657823264
  H   2.05041783663162      4.15596946364888     -1.58203271627825
