20
Coordinates from ORCA-job 19643optt
  Br  1.98069519793167     -1.36836805038527      0.70444864696470
  C   3.54619594736199     -0.60212957724607      1.40622478873897
  C   3.55332543873364      0.17053115387375      2.52102087895544
  S   2.03686353469114      0.53576011322071      3.37255488766785
  N   2.18010473772683      0.18518439175001      4.98493480942770
  C   3.21333411943216      0.00012764009502      5.69303915157048
  C   4.62857247194561      0.20918371926278      5.31029749290280
  N   5.53516756244055     -0.36574708471672      5.97944332578798
  C   4.93910490395543      1.22985625845932      4.24207280404204
  N   5.41869357086620      2.37179188614399      4.44293741229009
  N   4.75028978699558      0.78281896350091      2.91068239163105
  S   5.84944938582819      1.24230280076545      1.72355991212783
  O   7.14358784985183      1.33854419935889      2.30963210851715
  O   5.29913435491554      2.29529343948455      0.94406755700156
  C   5.75040196540616     -0.27916806191951      0.81501029418801
  N   4.68447984698477     -0.95122948525636      0.71436807258473
  H   3.06146246657378     -0.28822946493578      6.73090822946854
  H   6.46963962735597     -0.10812282762270      5.65576480044272
  H   5.56801232770419      2.55248453192672      5.43419653102797
  H   6.67548490329872     -0.59388454575970      0.33983590466235
