22
Coordinates from ORCA-job 19640optt
  Br  2.00920972189081     -0.27486004345467      0.83086916008012
  C   2.90806187950084     -1.95714893678645      0.60629511911847
  C   3.59588565468936     -2.47095125804349      1.66969988162253
  S   4.78296899250318     -1.32869407336320      2.25830172043333
  N   5.54714675288190     -1.20163674519585      0.74835237783106
  C   5.11098942077296     -1.58815028291874     -0.38942742597415
  C   6.15017550507522     -2.20080731067957     -1.24069615054647
  C   5.82280555393759     -3.24532752422347     -2.00030645403991
  O   6.50571009143589     -4.44508932034188     -1.74399219321375
  C   6.02845016580153     -4.97289065114274     -0.59158542870139
  N   5.03919046015789     -4.42846295098509     -0.01752173342556
  C   4.47250510631105     -4.69217126369934      1.20515188533338
  C   4.52385254863350     -6.07154514169640      1.81493388356447
  O   5.08335691201312     -6.98411116099729      1.27809625590186
  N   3.87084551084817     -3.80845577953250      1.89540617360765
  C   3.62983937454937     -1.94472068192101     -0.69091636603287
  N   3.22778268307860     -1.96978911983515     -1.88011068651519
  H   7.11403929913055     -2.24126435937117     -0.74811448695581
  H   4.90135556637011     -3.37340971824602     -2.54461068622511
  H   6.60288048153961     -5.83859890178228     -0.27470537098106
  H   4.01375436405083     -6.15795165929444      2.78740854495821
  H   2.23219395482784     -2.18796311648920     -1.92552801983980
