21
Coordinates from ORCA-job 19647optt
  Br  1.14207425645385     -0.19648280668438     -0.41261721170524
  C   3.01097683562034     -0.07505798713534     -0.18367338224317
  C   3.73916344195593     -1.22723776628671     -0.09057779632543
  S   2.86373783554275     -2.74038874208816     -0.18556497442025
  N   3.95603924562999     -3.93771354561905     -0.06503890741503
  C   5.21616791314530     -3.75479475892096      0.08324982144755
  C   5.85172649021168     -2.46956218390898      0.17734752904857
  O   7.18351895706145     -2.36526765807389      0.33813227552826
  C   7.95916217152403     -3.52313320165602      0.64263206240736
  C   9.30461191952676     -3.08975300313385      0.98991651703227
  C   10.41233582875049     -2.75234631848642      1.28403346748342
  C   5.16507411321735     -1.28643052973503      0.09343619870105
  S   6.15573222951812      0.14532655899852      0.22656337012959
  C   5.02519807061027      1.50908981567960      0.06521099253975
  O   5.48650650457632      2.60525326384991      0.11622225876497
  C   3.51444754165391      1.28393222529464     -0.12807692334689
  O   2.82819056874461      2.26763305727279     -0.21954272925793
  H   5.82077548218953     -4.65341693291611      0.13034520267674
  H   7.99376951268122     -4.18845057855313     -0.22432764539906
  H   7.51421199486982     -4.05886666615502      1.48552694576417
  H   11.39857908651619     -2.45033224174237      1.54680292858929
