23
Coordinates from ORCA-job 19642optt
  Br  0.62303444510270      0.42836960455055      0.08898860623735
  C   2.44514610422642     -0.04954160956397     -0.02761864183682
  C   2.87455314265374     -1.33468699656836     -0.10618746035470
  S   1.56885932004861     -2.53004133633618     -0.08864763826282
  N   2.05057814149525     -4.07418858627774     -0.15800716376315
  C   3.14351097493784     -4.70157026572976     -0.23130609036839
  C   4.53758953477845     -4.21589324424463     -0.29983082431216
  N   5.49333573648325     -5.06183710426580     -0.38829642952773
  C   4.94762437966107     -2.81434292109171     -0.28193891745885
  C   4.32605455528932     -1.61403889418393     -0.20309812710712
  N   5.23983390846751     -0.54807966710285     -0.22240571387544
  C   4.78630115185765      0.63705083063832     -0.14438469918026
  N   5.51740132209375      1.79357429810384     -0.14500766650150
  C   4.67474374749406      2.91097737536859     -0.04466866943917
  N   4.97480772761613      4.14010066065095     -0.01690821234092
  C   3.30462771020776      2.36898227235355      0.02439151872338
  C   3.37804226902099      1.02983666817869     -0.03743644171767
  H   3.05668845889627     -5.78897677199531     -0.25526993305509
  H   5.14015107683594     -6.01932510997943     -0.39582718081072
  H   6.02506868983868     -2.73230616684494     -0.34724697919814
  H   6.52097243683719      1.82106080900305     -0.21182987931656
  H   5.97942687793104      4.29646867466291     -0.07911747276148
  H   2.43264828822635      2.99740748067417      0.10465401622797
