23
Coordinates from ORCA-job 19659optt
  Br  1.78374572108651     -0.21194495990611      2.07925503961088
  C   3.17856564385825     -0.00684556522010      0.84318717799252
  C   3.97036326692684      1.09730965621016      0.90164374772077
  S   3.93438458899342      2.46070969455726      1.95809032159874
  N   5.23086504186444      3.20089187271724      1.19989789836910
  C   5.65207141131826      2.47426841725708      0.23946999407404
  N   4.99569752816569      1.27905448763227      0.00933832967590
  C   5.28690339571983      0.31865698769408     -1.02610497533557
  N   6.24324978320507      0.42558771224578     -1.84717434012303
  N   4.42352981324258     -0.74948804950267     -1.06681251676894
  C   3.46148568567089     -0.91269382928346     -0.21596517842295
  C   2.62304241009587     -2.17707375663086     -0.38115124110708
  N   2.76451180985472     -2.68725548664080     -1.72049560545706
  C   1.76741426523579     -3.38086523162920     -2.31578445448753
  O   0.70835947611839     -3.64050950245427     -1.79553964558948
  C   3.04832116925598     -3.14615119505388      0.64266709779216
  C   3.42958263750021     -3.93247708958915      1.45964387064894
  H   6.48667883540751      2.76496506398454     -0.38086731261101
  H   6.81729513612116      1.24937068084231     -1.71632112907986
  H   1.56711074471441     -1.94613295788065     -0.21686380017221
  H   3.62714156797047     -2.47501782396302     -2.20095849162544
  H   2.01999606417673     -3.68294320039003     -3.34365357498384
  H   3.75868400349691     -4.64341592499650      2.17949878828095
