21
Coordinates from ORCA-job 19650optt
  Br  0.99355937275369      0.10434487583444      0.11803631500460
  C   2.85885659225571     -0.01963090590707      0.02221104000346
  C   3.46811570536134     -1.22014727285247     -0.00663142671514
  S   2.57024351496209     -2.71352250508097      0.02366003892688
  N   3.69034679646763     -3.88715087047105     -0.07316025619136
  C   4.95164173090133     -3.66197439443184     -0.13144295179391
  C   5.89329366626557     -4.84016408691495     -0.20769972565876
  O   5.52195106851209     -5.97158031195145     -0.27162762947819
  N   5.58798465461133     -2.44009804164337     -0.12100906664019
  C   4.93255036559274     -1.33630816352442     -0.06612492557604
  C   5.70208423685943     -0.08313446806367     -0.07703585702589
  O   7.05249476342653     -0.15570937165817     -0.20233002121479
  C   7.77490022178492     -0.90039703591600      0.70553299501518
  N   8.98161354206431     -1.16918687045389      0.55872789002899
  C   5.08952999848272      1.10468290283698     -0.06975257798392
  C   3.62150408811300      1.24226915885132     -0.02301213502345
  O   3.09677190891339      2.33106404779458     -0.01667622225314
  H   6.95867693675113     -4.55162648208191     -0.19786851846877
  H   7.21221164949312     -1.19342177638274      1.58791754613555
  H   9.34345023112144     -0.81394133013397     -0.32643689903662
  H   5.66121895530642      2.02263290215061     -0.10427761205450
