22
Coordinates from ORCA-job 19657optt
  Br  1.06910246993222      0.19138483625985     -0.12314735175880
  C   2.93139327585701      0.02801059354821     -0.05105908514850
  C   3.69399626588738      1.15189200814120      0.00399966582712
  S   3.24345562624537      2.82533354557262      0.03937680809106
  N   4.83340663384632      3.34839608379885      0.11570615672868
  C   5.62906832037573      2.35291127425042      0.11041663975739
  N   5.06182601867812      1.09071696751203      0.04915532572514
  C   5.73725350310334     -0.11420220726954      0.04305213023727
  C   5.02545969050011     -1.26141548986822     -0.00062806975786
  N   5.55187598711935     -2.54308883930612     -0.00634865274724
  C   6.87154271227482     -2.83606969847097      0.02448027155519
  O   7.77050851985342     -2.02356268955577      0.05739620408468
  N   7.19028438885603     -4.20620180540181      0.01463231069069
  C   6.35762701292233     -5.29664476376950     -0.00265368402812
  O   5.15582662299842     -5.25765659092805     -0.01746989039072
  C   3.53978117949320     -1.27728613374914     -0.04661155137473
  O   2.94246946330028     -2.34111891995103     -0.07647836347758
  H   6.70685687312138      2.44132563044991      0.15082871106164
  H   6.81305902207748     -0.07056233159674      0.07631240340089
  H   4.86049749436051     -3.29511545987594     -0.02948301163114
  H   8.18638390911654     -4.36766692266528      0.03074748128384
  H   6.92232501008060     -6.24037908712498     -0.00122444812889
