23
Coordinates from ORCA-job 19655optt
  Br  5.55679400561442      5.14318762124194      0.31783705349392
  C   6.27956305654071      4.11607350975586      1.73032912101542
  C   5.99237651803538      4.27988360458896      3.12410843346763
  S   5.04747308542854      2.81040877859291      3.14734624145571
  N   6.27030568930574      1.66887293671748      2.93932094308167
  C   7.27125069682000      2.04619993194074      2.24831010420063
  N   7.16009373462580      3.17400812553074      1.39495978686513
  N   8.50555353388754      1.41375642669081      2.15621212635750
  C   9.26617271176758      1.41397491247869      3.17186883086527
  C   9.00818670428684      2.00973964443442      4.54092798818825
  N   8.29427932529661      1.35072312561765      5.34849788892622
  N   9.80466539910291      3.12146460087713      4.81415455344647
  C   9.53060918616726      4.32318195550008      4.48182556759273
  C   8.33098113373320      4.80004929572341      3.79716645389598
  C   8.53610709167421      5.82855753261224      2.77989877994825
  O   9.61841147376825      6.22632853082969      2.41256312207540
  C   7.08183746980363      4.27807052640068      4.02748835827228
  H   7.57788107697633      3.10667538845452      0.47426397797596
  H   10.24569791364210      0.95271774554304      3.05303780006880
  H   8.28552435047655      1.80378345394040      6.26465573920501
  H   10.31386267657416      5.05938165569076      4.65321591402412
  H   7.60840544482265      6.27336531746830      2.37012320881553
  H   6.92596772164949      3.70859537936947      4.93988800676206
