22
Coordinates from ORCA-job 19668optt
  Br  2.68111712158183     -0.62076534476542      1.43896731071301
  C   3.23724211026154     -2.39301951307826      0.95226476462941
  C   4.23243745185777     -2.99202009326360      1.68874552061543
  S   5.61403646516929     -1.91847381931409      1.94428405363939
  N   5.81145181192174     -1.60604359036937      0.29722157646762
  C   5.01649794371391     -1.89175857315538     -0.64829376063590
  N   5.50991888900681     -1.88077591812055     -1.96677402786967
  C   6.27412386263143     -2.84343406030706     -2.28584193455501
  C   6.63085820851081     -3.95536889430293     -1.36500343059983
  C   5.66823487929121     -4.59870166117150     -0.72842719230627
  O   5.89105638469551     -5.48650923858894      0.29571615014646
  C   5.13549161390519     -5.31897249476006      1.41440854323218
  N   4.46309654198071     -4.31989184439911      1.76341651409507
  C   5.17864411085416     -6.50102354320792      2.23510551528280
  C   5.21751887698961     -7.47881703559105      2.92223139202402
  C   3.55285233367432     -2.39905678726063     -0.49769189909540
  N   2.90226446015968     -2.70691749172171     -1.52765363669702
  H   6.71808751050869     -2.82101818675215     -3.27889181812333
  H   7.67468553329743     -4.14251001474677     -1.14089620596058
  H   4.62103314995740     -4.47151334905109     -0.96888691399601
  H   5.24899966517883     -8.34906122304434      3.53540656862381
  H   1.97335107485204     -3.04334732302799     -1.27240708963019
