25
Coordinates from ORCA-job 19664optt
  Br  1.23940355759588      0.11602698179922     -0.46117387899448
  C   3.02741748293009      0.00871368224316      0.08427376077314
  C   3.80761399971301     -0.96799366106947     -0.43349171048898
  S   3.43850087166534     -2.18071179139924     -1.62049547280328
  N   4.98855271232937     -2.81819181308016     -1.58301917563156
  C   5.72857704272257     -2.17439308703989     -0.76446363231569
  N   7.07508966119382     -2.44249032022826     -0.58093222012579
  C   7.92100637365230     -2.85670746943331     -1.70254303981504
  C   8.93679633874542     -3.79700169064816     -1.04078264545489
  N   8.82491034241540     -3.43462929646332      0.36780196781712
  C   7.57180622231856     -2.91724590889501      0.64013479843634
  N   6.92189477680677     -2.81538731574401      1.72095876684733
  N   5.13352818836043     -1.10996564098435     -0.08978665670688
  C   5.71936491924893     -0.21851903709161      0.78555468420290
  C   4.99506823525531      0.77735627339010      1.31517804893825
  C   3.57046892901673      0.98666866485586      1.02122475537085
  O   2.92797966610245      1.89868712906996      1.50784546250047
  H   8.40472738465685     -1.98228358828064     -2.13870701016480
  H   7.32933868151917     -3.35772236881993     -2.46470958543668
  H   9.94538737974378     -3.62868095413520     -1.41230040968700
  H   8.66725318930167     -4.84256152503859     -1.20967241216247
  H   9.20258077907374     -4.06298245994535      1.05852527088556
  H   7.41498005736017     -3.22004012415887      2.50941488666739
  H   6.75940169762410     -0.39799230133599      1.00316777179013
  H   5.45535151064800      1.47604762243309      1.99899767555806
