18
Coordinates from ORCA-job 19667optt
  Br  0.85711665722015      0.05998295574715      0.06961101899347
  C   2.74319675262439     -0.04359330368783      0.06103299632164
  C   3.38052110980862     -1.22657697506113      0.05560432834632
  S   2.40255986772138     -2.71257313360955      0.05574568167501
  N   3.30113835064350     -4.04001420226276      0.04929417637314
  C   4.52539927943702     -4.39710240587164      0.04371150052185
  N   5.69801785156344     -3.66204394070840      0.04160826639521
  C   5.77393354260879     -2.38961300847873      0.04462599050062
  C   7.10456769473111     -1.71867046628340      0.04239029214914
  N   7.01307615393718     -0.44747378389546      0.04584610016200
  C   5.61318201349622     -0.16081097683678      0.05077681880629
  C   4.82303505906200     -1.25994762205703      0.05051028291839
  C   5.19479630909448      1.23451248144253      0.05533581793411
  N   5.95817795841770      2.24165682425744      0.05533840111916
  S   3.45093961161391      1.54614155829785      0.06155614117451
  H   4.70097126704323     -5.46735303999032      0.04004614665053
  H   8.04207891431424     -2.26016203357820      0.03845362939508
  H   6.93229160666260      1.93464107257627      0.05151241056353
