22
Coordinates from ORCA-job 19676optt
  Br  2.22698732179737     -3.85535242182582     -1.19876887818477
  C   3.46766220369396     -2.65053785203294     -0.46293257492998
  C   3.66297480121231     -2.49567276863559      0.85027983353297
  S   4.80784990063724     -1.24805497775481      1.40051549030347
  N   6.09146017536180     -1.52573173343306      0.32805493308739
  C   5.79881214295055     -2.00266821763706     -0.80423644076765
  O   6.71083619428930     -2.79527801641189     -1.45228099399020
  C   6.32160600307818     -4.11758592488134     -1.21575981814483
  C   5.80925230992543     -4.48956999081457     -0.04016175110858
  C   4.94484618270452     -5.64166367866352      0.18072120178817
  C   3.86534426792483     -5.61890953196809      0.99867102080611
  N   3.46491680311361     -4.69899896747011      1.95014560792306
  C   3.31790046423889     -3.44043484787272      1.94208740087833
  C   5.13137164721975     -6.80896134708369     -0.63000553386057
  N   5.29757063479439     -7.72235408379211     -1.30537941676270
  C   4.41607055813965     -2.02993328455703     -1.41279045339305
  N   4.25095133756515     -1.68070236527361     -2.61087956597376
  H   6.37613320915066     -4.73822647270438     -2.10120796252551
  H   5.84901910567315     -3.79775347988653      0.78862823168711
  H   3.24166698394999     -6.50702471903443      1.01423635549212
  H   3.03641800808176     -2.98576624709965      2.89128832124074
  H   3.27534974449748     -1.78981907116700     -2.89722500709787
