19
Coordinates from ORCA-job 19685optt
  Br  1.17721312189886      0.48078355139007     -0.06710030306487
  C   3.04041107353460      0.27799158643034     -0.06433484587003
  C   3.62894605032961     -0.98009368429347     -0.06355224681687
  S   2.92642818207648     -2.53999860554350     -0.06447921445313
  N   4.44838713630845     -3.29711259604813     -0.06262561152788
  N   5.40895126836466     -2.49025968421669     -0.06138460327099
  C   5.02808117802496     -1.16681749767899     -0.06180907058529
  C   5.89725896936189     -0.07404059254259     -0.06073503289674
  Br  7.75996245568757     -0.27570588975666     -0.05821773686956
  C   5.30638215401587      1.16147757118231     -0.06158540635841
  C   3.88480983764909      1.37817705178579     -0.06322309002168
  N   3.56782279565407      2.71811557368448     -0.06376802527989
  C   4.74204893388749      3.28937589444672     -0.06262360395302
  N   5.27464767325734      4.52688029020895     -0.06241556278615
  N   6.64044900973357      4.48264073108886     -0.06124218751413
  C   6.95977186952073      3.23175387402528     -0.06061855299609
  N   5.82909929358827      2.44516777394916     -0.06132423611893
  H   4.79562280467009      5.40954733301203     -0.06323638702181
  H   7.96570619243635      2.85211731887602     -0.05972428259452
