19
Coordinates from ORCA-job 19688optt
  Br  1.11607812862191      0.03308174524553     -0.01423381604411
  C   2.98669114698986      0.06248390657406     -0.00785026030116
  C   3.66852793419464      1.25382870387961     -0.00472871978239
  S   3.15891675707534      2.88065821213514     -0.00371991625646
  N   4.79493763850869      3.42534260454324      0.00173361520729
  N   5.64343175496477      2.51679801925053      0.00233341615012
  C   5.09029804572536      1.22855844873223     -0.00112953848153
  N   5.82782819191115      0.15189221436423     -0.00070931999760
  C   5.16482926759438     -1.01884425073465     -0.00304918194868
  C   3.74052366371121     -1.12725944646927     -0.00624489134905
  N   3.10593746626926     -2.32868927731704     -0.00754961918537
  C   3.82389944001464     -3.40735225738325     -0.00601508505792
  C   5.25629991845890     -3.42194149410694     -0.00356452435638
  C   5.91273343473428     -2.22400576642707     -0.00219768261336
  C   5.93454570488893     -4.67788046023042     -0.00258230460255
  C   6.46826938939441     -5.75096573130291     -0.00169117547422
  H   3.29555448611046     -4.35542043342254     -0.00669056237499
  H   6.99270915423990     -2.16031350639477     -0.00024164747623
  H   6.94798847659184     -6.70097123093568     -0.00086878605541
