19
Coordinates from ORCA-job 19699optt
  Br  1.14890485934111      0.05558502246856      0.58603371416564
  C   2.95727058786020     -0.01093347731486      0.09452165012074
  C   3.61459051116280     -1.16438548673482      0.04891054887071
  S   3.17648725236874     -2.81852534370424      0.34894217810293
  N   4.81897692556416     -3.31575868328130      0.13382544374900
  N   5.59652936024854     -2.40328863575110     -0.14012242807402
  N   4.99387533209435     -1.18381832178256     -0.25648407213173
  C   5.69705768385850      0.00620156551883     -0.14751724318615
  C   5.02602356025723      1.17045440572072     -0.07655626422683
  N   3.60454374651484      1.21541557078515     -0.18219270465234
  C   5.73783967503537      2.42172179158834      0.13119595404398
  N   5.22243118975757      3.56758759099650      0.29476222239639
  C   7.24664800268396      2.31454017347397      0.12820120215189
  O   7.98504491719885      3.24248757564047      0.19291810865740
  C   7.88170696968345      0.89897753583620      0.05220911860612
  O   9.04182998024261      0.70466186763803      0.08829317756607
  O   7.02522316698378     -0.17955071757306     -0.04703837799269
  H   3.28984378239904      1.63369187717947     -1.05563649163786
  H   4.20217249674485      3.50093568929569      0.30073426347074
