20
Coordinates from ORCA-job 19697optt
  Br  1.18639734638690      0.10685545659641     -0.23176520898101
  C   3.02435449082517     -0.08386631796591      0.05019484353231
  C   3.68848509313560     -1.21366800615982     -0.21823978728549
  S   2.96395420914972     -2.66714691363029     -0.84033092917373
  N   3.94041409337620     -3.87596671272831     -0.09508670171163
  N   4.96915289400428     -3.67514790071213      0.53589057654378
  C   5.62595201564954     -2.37454489988665      0.67798588970908
  O   6.64060975778738     -2.32205948778521      1.30138844957570
  N   5.08841801213637     -1.30127741550305     -0.00409815304939
  C   5.74360241763193     -0.04620695464604      0.07850309150214
  C   5.03484551348327      1.07098373219659      0.32259242109844
  N   5.80245793569113      2.22553688491874      0.26307034472469
  C   7.12831320014300      1.86066094743674      0.01875929649488
  O   8.06895304271115      2.59403488831644     -0.01543825520408
  C   7.10890814526060      0.33940868870735     -0.21296034497827
  N   8.08502160795194     -0.34854036280610     -0.61678411944523
  N   3.67387368418194      1.08677395607224      0.50354464721643
  H   5.54888682522830      3.11087417226254      0.67272835601908
  H   8.90284629879459      0.25427444955201     -0.73956760397824
  H   3.18855341647091      1.95402179576444      0.32161318739054
