21
Coordinates from ORCA-job 19695optt
  Br  1.21299850542062     -0.32290120281756      0.57020044885403
  C   3.05248625893987     -0.09326542300116      0.38955536882386
  C   3.65295091924131      1.09365796248966      0.19437259227870
  S   2.73520445417332      2.56457215473508     -0.03337366219130
  N   3.82920020282611      3.43568839454522     -1.10490454495262
  N   5.03798307931084      3.28158379788373     -1.04317144486599
  C   5.66926933564376      2.48329244344876      0.00364322976384
  O   6.57792181036925      2.99595865482680      0.58477373554912
  C   5.10781038502077      1.13149607722810      0.19886461513372
  C   5.82508710287940     -0.02740663276328      0.26083385386958
  C   7.31662390294753     -0.17072531091354      0.25324402869313
  N   8.16054998226490      0.66332637149647      0.71952517132166
  C   7.82538591089478     -1.43755443748233     -0.28149429775946
  C   7.03329210471545     -2.51084664772292     -0.41249593457661
  C   5.62372998822842     -2.45233819133759     -0.10285787343451
  C   5.07479868413287     -1.27154166036938      0.21889520622732
  O   3.72451100447831     -1.23644929338313      0.52378880515924
  H   7.72266654813257      1.47350908754009      1.14904361171633
  H   8.89011540798310     -1.47576252383147     -0.46450871836455
  H   7.44424647403858     -3.45529043118034     -0.74419600306165
  H   5.00316793835819     -3.33600318939122     -0.14773818818384
