19
Coordinates from ORCA-job 19690optt
  Br  1.11683452214989     -0.30539794117696     -0.42092560394793
  C   2.97206798370102     -0.12810861976054     -0.23846271987220
  C   3.57206656854104      1.05247758346142     -0.02196128474073
  S   2.68852407752141      2.55113581077772      0.17438951141078
  N   3.88331400750549      3.76093069152680      0.15416153775738
  N   5.09832898330464      3.59035558948465      0.07896461797136
  C   5.70817517023109      2.30301889543536      0.00795074616919
  N   7.02071551292802      2.38023628861476     -0.05836349143771
  C   7.73273606614341      1.28414478764095     -0.17056753795316
  Br  9.59639019248986      1.55495612320495     -0.32011493663017
  C   7.16667081171649      0.00573528880116     -0.18722990669308
  Br  8.28798672870255     -1.47824692742227     -0.47128332581601
  C   5.77480086884533     -0.10484005111107     -0.06156342191514
  C   5.03077810565819     -1.39712920758761      0.04116109184355
  N   5.41366693687889     -2.53740018748263      0.43148268198713
  N   3.69159350155047     -1.28785301296805     -0.33785405863787
  C   5.02019392691529      1.08428363684244     -0.00271590806093
  H   6.39909626642412     -2.57881974066873      0.65297623952318
  H   3.19505976879274     -2.16847900761237     -0.31704423095764
