19
Coordinates from ORCA-job 19691optt
  Br  4.94345145396410     -0.04148965891512      1.80426160564788
  C   3.48851505273135     -0.03095993105422      0.62136632430196
  C   2.37825386058326      0.75336080828078      0.79586600408197
  S   2.29961906167545      1.68643898285345      2.29918999647631
  N   0.99419922422058      2.65824786839472      2.54653129973190
  N   -0.00289284005365      3.01696354025716      1.91731900682978
  C   -0.34630679412684      2.62088939802802      0.61666871190495
  N   -1.34980427499175      3.23374798505106      0.12017941262462
  C   -1.55399996334665      2.68531760206352     -1.18648126969675
  O   -2.38297891369184      3.06229716888863     -1.95477605912895
  C   -0.54223592580645      1.60428234544037     -1.40457584001252
  C   0.23243078674758      1.55548046873705     -0.32125846592444
  C   1.39933784435504      0.65338792457362     -0.24528946135482
  N   1.49059611228048     -0.18298670694479     -1.23938656120653
  C   2.55904013870911     -1.02831188384427     -1.38416765550705
  O   2.69342427686478     -1.85742168236342     -2.24342437714398
  N   3.58741227192056     -0.85808282696239     -0.42421203011186
  H   -0.45926391573988      1.00746540620487     -2.29834044209815
  H   4.40520254370473     -1.44162680868906     -0.54547019941431
