12
Coordinates from ORCA-job 196optt
  C   -3.11287998435925     -0.10184018136233     -0.18388108204261
  C   -2.44698849120909      1.04512164221691     -0.04232252423520
  C   -1.01503551848142      1.09083207333364      0.21697008081224
  C   -0.20957820318136      0.06108329831420     -0.07674300400014
  S   -0.79009259368388     -1.48089455368935     -0.63934845771433
  C   -2.44681888303777     -1.41963737885922      0.09048585652396
  H   -4.16189282447299     -0.10295660003065     -0.45379558121730
  H   -2.96255566031360      1.98800582873086     -0.17767428317663
  H   -0.57286614433201      2.02158224423851      0.54864483286310
  H   0.86809147139937      0.14898595634589     -0.03039603559156
  H   -2.99654024448191     -2.25182444908110     -0.34416194664860
  H   -2.35484292384607     -1.59345788015735      1.16622214442707
