19
Coordinates from ORCA-job 19703optt
  Br  1.17479215991166      0.10442915331084     -0.28990473225493
  C   3.02654274819967     -0.01356118820101     -0.09159323705670
  C   3.61588011087071     -1.21710148365965     -0.00160312414161
  S   3.03838015422941     -2.84734145319524     -0.02467391977113
  N   4.64022006075171     -3.44202292397631      0.15775866363332
  N   5.50283806695079     -2.56311905191596      0.22936832269710
  N   4.98945212683501     -1.30398551656820      0.14599284925146
  C   5.75207375322133     -0.16089872288501      0.20185207675980
  N   5.24199909319605      0.99878947552918      0.12066742247639
  C   3.85701642616765      1.18905573256123     -0.03440470679304
  N   3.32288869230413      2.34421576434559     -0.12475671226909
  C   4.01269894493303      3.52507660416513     -0.07593092434129
  C   3.39016448325844      4.70485456541362     -0.19683326417340
  O   4.15860706593320      5.82215497947991     -0.12633545370460
  C   5.48441092522978      5.55428841557920      0.07276358828497
  O   6.30305059232958      6.40987366502637      0.16899415326105
  S   5.75313232596426      3.80621976355300      0.15336386358477
  H   6.81764027892834     -0.32503535853112      0.31904573355731
  H   2.33521199078521      4.86610757996841     -0.34277059900040
