22
Coordinates from ORCA-job 19707optt
  Br  1.10412082618649      0.15276480930237     -0.23107267318364
  C   2.98260301264136      0.09473450007678     -0.04028999078335
  C   3.54344037536772     -1.12202961710535      0.15546058730879
  S   2.81659478224157     -2.67772754912959      0.34878604776313
  N   4.34406116142756     -3.39199049635428      0.62901683724069
  N   5.28453368417356     -2.59488617298711      0.57380136689408
  N   4.89437930808599     -1.31274537185757      0.32250983586596
  S   6.09214674277207     -0.17279035927600     -0.16064548596502
  O   6.37216987362962     -0.43816682748628     -1.53096253325763
  O   7.13449902875715     -0.24300481945859      0.80387027049652
  C   5.13384223088855      1.24660689877509      0.02338049914255
  C   3.78357705392342      1.29037871024454     -0.02113571479678
  C   3.10504482647764      2.63202912494933      0.05700368608230
  C   2.57325512386612      2.90125992248718      1.46180828725530
  C   1.74867194045526      4.15820296194077      1.53364906026981
  O   1.48366298493244      4.84015437125992      0.58402328436781
  H   5.74400478283909      2.13723981073256      0.09706244871387
  H   2.27955482889338      2.67574667158275     -0.65385963560157
  H   3.80519559861893      3.41698733604591     -0.22444971418910
  H   3.39086881147816      2.98576045563027      2.18496717214304
  H   1.94436916537847      2.07892844441239      1.81992192159680
  H   1.38240385696542      4.42854719621492      2.54215444263643
