23
Coordinates from ORCA-job 19718optt
  Br  0.94778849033383      0.03166235781511      0.11818805551568
  C   2.82439776229682     -0.05429709188519     -0.00718741728873
  C   3.49605003193635     -1.23618501691198      0.02461933354107
  Br  2.51468412098430     -2.83015105556581      0.21342221024668
  C   4.94171431787234     -1.30070775976537     -0.04148842999688
  C   5.74565882482525     -2.41915110824313     -0.10330381572844
  C   5.56585285020147     -3.84309511720975     -0.20225811193855
  C   6.81007337670186     -4.42083889222732     -0.23095553165322
  C   7.82272088289256     -3.41671904798411     -0.14553620986659
  C   7.19431020616851     -2.20041600563706     -0.07730799837589
  C   7.71486242797142     -0.88408343152360     -0.00750197279756
  N   6.97674208224216      0.17788947521754      0.00890231462960
  C   5.60879456853856     -0.00281958252318     -0.02132121962417
  C   4.87652297539242      1.13815553241266     -0.06094193717241
  N   3.50704116483563      1.14749149707014     -0.09172402157910
  C   2.88045324189637      2.42189970885181     -0.23949513967435
  O   3.50732051496922      3.43398046651991     -0.26290189856887
  H   4.63789107334263     -4.37928558604945     -0.26398632950945
  H   6.99575826474951     -5.48197377480315     -0.31074191661088
  H   8.88929888837503     -3.58466771749865     -0.14231482801143
  H   8.79148159956800     -0.73523987055436      0.02465682135960
  H   5.34813007174122      2.10816217388597     -0.09051228331005
  H   1.79645226216442      2.36238984660898     -0.33530967358608
