21
Coordinates from ORCA-job 19711optt
  Br  1.96868173185209     -1.30501922476071     -1.79845965589674
  C   3.25943558470322     -0.38475708385066     -0.77297323637407
  C   3.98094938191017     -1.09676694940741      0.19975642932238
  Br  3.80581019745478     -2.93264795897031      0.52631937201626
  C   4.91571259119573     -0.33714299900477      0.91836667259106
  C   4.95580361534546      0.97468850107029      0.61373641771482
  C   4.34013103662015      1.69960227434876     -0.36553039365470
  C   3.42355646658361      0.99398786781903     -1.11257509312179
  N   5.00596852385688      2.95309661355343     -0.34317230625620
  C   6.10710712024205      2.96217828294000      0.68578646061724
  C   7.28967209848133      3.43096811882158     -0.16901156853924
  O   6.68519188478544      4.06614478812759     -1.29944781331919
  C   5.43497172275598      3.58648003976952     -1.50648134539529
  O   4.82214486734494      3.69813422120502     -2.51820061746019
  C   6.07209803448941      1.53628296291107      1.21926105331987
  N   6.68952862880462      0.65103698215000      1.93655190887471
  O   5.94315019239406     -0.56218197445810      1.77174408470957
  H   2.87285117128508      1.40924561474444     -1.94215943276424
  H   5.86353662304781      3.68176690438326      1.46720247601700
  H   7.89567384937865      2.59131237617368     -0.51283504216485
  H   7.91802467746845      4.15759064243426      0.33712162976358
