24
Coordinates from ORCA-job 19717optt
  Br  1.47580946684434      0.02685903720663      1.03818015165789
  C   3.29928510461869      0.14031391129496      0.54937571631094
  C   3.86925305171660      1.39456224931178      0.27867268772077
  Br  2.90575824265685      2.99640033375372      0.20046835397366
  C   5.23338877882900      1.40586128249290     -0.00105833168153
  C   5.90360613425634      0.21502121020881      0.04145992837177
  C   5.22220310098879     -0.97119036043050      0.15683532985536
  C   6.16011859515825     -2.09969299492082     -0.21098250680433
  C   7.29576506326514     -1.35592103886220     -0.97308825125542
  C   7.32464190739770      0.06366189385195     -0.35258148196101
  C   8.29377126105973      0.07405916517897      0.84857318459229
  C   8.16140614743255      1.29018166433157      1.64548758483872
  N   8.02355127613649      2.25746701935688      2.24324478029505
  N   7.70806557508710      1.16222338345360     -1.23662632327705
  C   7.04958818873352      2.23118044951808     -1.16528679297568
  O   5.90092957484455      2.50111383204072     -0.44403245691165
  N   3.93034514234358     -1.02042801182067      0.44553176881720
  H   5.66662284515267     -2.85582728879667     -0.81860085411622
  H   6.53763622585668     -2.59736236471552      0.68628432861782
  H   7.02878242382030     -1.25730390215364     -2.02540262665983
  H   8.25880574868418     -1.86192296467197     -0.90960542937101
  H   9.31633807352726      0.00244063302426      0.47449928376294
  H   8.09484912606812     -0.78793345987475      1.48840934486812
  H   7.33047894552149      3.11323632122189     -1.72775738866881
