24
Coordinates from ORCA-job 19714optt
  Br  1.30942717893573     -0.47414263689747      0.18015164169856
  C   3.15569738866089     -0.14817249904642     -0.03209613689205
  C   3.62975146401261      1.15631168585644     -0.26523453178626
  Br  2.49729974403450      2.64846057577659     -0.28051140403754
  C   5.00331819535810      1.33360289263412     -0.41834022555583
  C   5.77823674624573      0.20807778450573     -0.40474718658954
  C   7.24220484324200      0.40498785847992     -0.38715366118027
  C   7.33006552839450      1.84337594726667      0.15477610590522
  C   5.96375107442782      2.48561541536593     -0.24307810846889
  O   5.74397427586088      3.65617208003239     -0.30741442778676
  N   7.64436204660914     -0.78955347943640      0.36877696538681
  C   8.97814575094687     -1.01639231472674      0.68351568027184
  N   9.46297688469754     -1.81392808570557      1.53417276622396
  C   6.60468443149872     -1.77494207347853      0.38397709042408
  N   6.64986912602506     -3.00445841602446      0.65629353318824
  C   5.37491025317206     -1.03721964947560     -0.01582758543399
  C   4.01534325685518     -1.23973777834043      0.15428388651587
  H   7.67649937312891      0.36395130083973     -1.39243243295260
  H   8.16184595809984      2.43885703182659     -0.21349723365747
  H   7.35749450706821      1.83277978763145      1.24809772888654
  H   9.65734896966865     -0.38522541549473      0.10718467181537
  H   8.74618138035682     -2.29447799247630      2.07498871680886
  H   7.58228597571031     -3.34279836751109      0.87736722704487
  H   3.61632564698983     -2.19214365160184      0.47574692017098
