21
Coordinates from ORCA-job 19710optt
  Br  1.35942309855023     -0.57146399848258     -0.59310737831251
  C   3.18994169968189     -0.22152521721650     -0.32697186775529
  C   4.12024166964867     -1.25284608052995     -0.16581248993703
  Br  3.56578580837708     -3.05033272434182     -0.17962428210074
  C   5.48438180131119     -0.96371904308085      0.00575714186774
  C   5.84914024444197      0.37484904055432     -0.02522536050535
  C   4.91406674271056      1.39626571656219     -0.09321152912385
  C   3.57716489445838      1.11620548645800     -0.25759684671741
  C   5.62352751374354      2.68785649024630      0.12499889949528
  N   5.22555140612126      3.88357356031687      0.14015450135799
  N   6.95113716072356      2.32530653623021      0.34784343005947
  C   7.18311107941537      0.98132957343582      0.15475212726868
  N   8.33872938454966      0.45611057464607      0.08653971724064
  C   8.38268644355336     -0.86331049832695     -0.40472864555835
  O   9.00790695648048     -1.14592541924698     -1.38211569605385
  N   7.73882785346120     -1.86648664077121      0.34872234482670
  C   6.48168945502600     -1.96371196381749      0.44028458062075
  H   2.82948458819538      1.89505671805395     -0.32729828557166
  H   4.23034977543094      3.94990775732097     -0.05612019264813
  H   7.69537242369337      3.00510888639543      0.37455293316146
  H   6.08348000042585     -2.82224875440581      0.97720689838545
