21
Coordinates from ORCA-job 19721optt
  Br  1.27545309655894     -0.37288455644174     -0.07126620443781
  C   3.09097449842943      0.02793772150608     -0.07733683790665
  C   3.62427784145982      1.29001560467716     -0.07775125188978
  Br  2.54697740768619      2.81967282742097     -0.06878981520583
  C   5.01521559309216      1.36536190062822     -0.08446178399069
  C   6.00488650463608      2.33231182093519     -0.08884514057608
  C   6.02528372738447      3.75648936163043     -0.09027318261886
  C   7.22683038650627      4.38647082828465     -0.09537442577188
  C   8.44953137142652      3.63707124351737     -0.09850571361946
  C   9.74267356919375      4.37047785678277     -0.10272354471772
  O   9.83234131261706      5.56780892249818     -0.10418816718309
  C   8.47829081891166      2.27436501410181     -0.09760190608656
  C   7.24130420047134      1.57223958922693     -0.09325039994992
  N   7.09030037236052      0.24835402060296     -0.09262602911184
  C   5.75068828607192      0.07885865391889     -0.08770864400485
  N   5.18319865796699     -1.09183702904981     -0.08643233295011
  O   3.82933468951199     -1.07320747712638     -0.08171097311901
  H   5.10244709693257      4.31948240355475     -0.08783436479967
  H   7.30138159478921      5.46539597848601     -0.09703418171074
  H   10.64352822773550      3.72906910584468     -0.10420531413821
  H   9.41008074625753      1.72154620900087     -0.10007978621124
