24
Coordinates from ORCA-job 19723optt
  Br  1.23885684000077      0.03784890630393      0.48571458655803
  C   3.05940107943282     -0.03134281435229      0.00111821436799
  C   3.77201010415497     -1.25528777841280      0.00074637833005
  Br  2.92891659165939     -2.88209730915711      0.42062839482540
  C   5.17049271595866     -1.29280601452966     -0.19948853870706
  C   5.79541652340691     -0.13910296684070     -0.59786953725007
  C   7.23410325760168      0.23927981342151     -0.37205527641604
  C   7.62783368865284     -0.66787863509241      0.80681189374292
  C   7.24737642236930     -2.11531246916625      0.48641308543293
  N   7.99168415798383     -3.12147080678793      0.53557412052749
  O   5.92953878933088     -2.36995082547673      0.14298435450236
  N   7.13661741089011      1.70418417241781     -0.13862286280769
  C   5.81886122089715      2.12472823008887     -0.14404065494896
  N   5.10934251432472      3.10803783390352      0.26645571526682
  C   3.68766236155909      2.65015066199094      0.17899878508455
  C   3.74141025249722      1.16481929368409     -0.21695796572692
  C   5.04658637985864      0.98805609135379     -0.54943106648418
  H   7.88479517406017      0.03533591044130     -1.22562026965543
  H   7.06862597094068     -0.34715748021219      1.69044591072184
  H   8.69138056203099     -0.64009660618323      1.03531628826588
  H   8.93045899342704     -2.86577966449370      0.82610856382636
  H   7.89405092592232      2.23723004207588      0.25311016116783
  H   3.12796952494628      3.26140369881537     -0.53185493170205
  H   3.22260853809346      2.77520871620797      1.15851465107795
