23
Coordinates from ORCA-job 19724optt
  Br  13.88407270441561      2.79054263589622      1.32798027324195
  C   12.00593555769482      2.61904882129179      1.20054644977693
  C   11.43947242903811      1.48150682376019      0.58611684691331
  Br  12.45932765762937      0.18085742589374     -0.31045848108156
  C   10.05505854089883      1.39888124577441      0.56416457240104
  C   9.38743600156346      2.38711495415853      1.24245072995033
  C   9.99567368339832      3.55441849594165      1.63411723509607
  C   8.95508996915086      4.64332329630824      1.72023272118835
  C   7.81007619881990      4.03213522747883      0.86075742973991
  O   7.01113614079789      4.63214759035839      0.21641868829049
  C   7.94851615167885      2.48163766008417      0.95961124606124
  O   7.05985166268026      2.05955335964117      2.00945349686713
  C   6.37300226645828      1.00311353062663      1.50708382453841
  N   6.63023566486875      0.59162665260666      0.34695394118262
  C   7.72595129263329      1.41697860648730     -0.15923554224003
  C   9.06706157562727      0.60017448472520     -0.25226658089500
  N   11.31869596732259      3.66374880615485      1.63787570251367
  H   9.28640021094746      5.60219042579395      1.32724652883664
  H   8.57780783668907      4.79011048532352      2.73610245269893
  H   5.63387346252852      0.58918578206446      2.18068217491893
  H   7.45621952411705      1.84604173647950     -1.12302008857720
  H   9.41932953084246      0.48630989389565     -1.27736472817507
  H   8.91377597019882     -0.40164794074506      0.15255110675289
