23
Coordinates from ORCA-job 19720optt
  Br  1.18226298804140     -0.27993290763394     -0.13783099680897
  C   3.05460809154100     -0.04260353110555     -0.03732726666359
  C   3.58551211138569      1.23568781613178      0.08989665815908
  Br  2.57415646296374      2.80855835858730      0.23381085590033
  C   4.98134153084825      1.32073510232093      0.10544484144687
  C   5.70687759213585      0.14553004025431      0.03506569560886
  C   7.10578648241554      0.35951984506836      0.00311154079962
  C   7.94323172254020     -0.87359257170051     -0.14343547654722
  C   7.15943432217969     -2.06126340348115      0.43990715481251
  C   7.83015950606738     -3.39296932162569      0.18463935275051
  C   9.08850505196813     -3.59225376122131      0.98607504021580
  O   9.52201723179800     -2.79684144946727      1.77311416298511
  O   5.81928453666632     -2.19852920270479     -0.09312823296116
  C   5.06620079361400     -1.08654636688552     -0.04580867997395
  N   3.76274765966901     -1.17703458575767     -0.09718085980898
  N   7.46985486192830      1.60151450633622      0.06691660781723
  S   6.13021279878139      2.60375630736397      0.15821213093185
  H   8.89452218283651     -0.78879337043422      0.37928272934866
  H   8.14438329008749     -1.04772410180931     -1.20521012157280
  H   7.06068241773780     -1.90574505253355      1.51860444759411
  H   8.06275789939718     -3.52426792997371     -0.87715615873462
  H   7.14455145154983     -4.20665513330459      0.44222742694023
  H   9.60590901384725     -4.55454928642409      0.81676914776053
