26
Coordinates from ORCA-job 19725optt
  Br  1.14955667407765     -0.07397337866111     -0.16111488856091
  C   3.03785496104796      0.05608738065314     -0.10402043465574
  C   3.68196452596025      1.28947893665923     -0.20875937804056
  Br  2.73407405814356      2.90102226499283     -0.43703441961939
  C   5.07516437965097      1.31858503951781     -0.16524007017726
  C   5.73064435921985      0.10500823312832     -0.02751876500364
  C   5.00240757211305     -1.07207163611504      0.07247695564876
  C   5.76148224737753     -2.34898871044334      0.25905845269389
  C   7.05851743531022     -2.38949967938774     -0.57489369699375
  O   7.53383698003469     -1.10706770751406     -0.98504095038889
  C   7.23482160380098     -0.03410856084714     -0.12887296013269
  C   7.81493160194437      1.23872193669082     -0.74329463774407
  N   7.26182172889900      2.35608164239472     -0.01017879735471
  C   5.86119677653713      2.59344349912214     -0.30164430683214
  C   7.83005671847795     -0.27030022058207      1.21232564193066
  N   8.28878967011118     -0.51449076743185      2.23344285643213
  N   3.67613920550400     -1.08654741399175      0.03165453850736
  H   5.12120899479400     -3.19419863878126      0.01499379895150
  H   6.01509375103999     -2.42710609177268      1.31985084155588
  H   6.89682102440997     -2.93203129545842     -1.50406224178186
  H   7.84556262253782     -2.89217349170969     -0.00878655288737
  H   7.54383164099471      1.22240080921502     -1.80829539226951
  H   8.89956568978754      1.22912154876483     -0.65782717593310
  H   7.81019661745930      3.19538536142805     -0.12377868529527
  H   5.68695341975740      2.98359303603312     -1.31717633470381
  H   5.46650574100887      3.33362790409610      0.39573660265450
