19
Coordinates from ORCA-job 19738optt
  Br  1.02873287738691     -0.15683795669032      0.02075663994388
  C   2.90890596707889      0.00609446627967      0.02039139414293
  C   3.52248463496148      1.28369025554818      0.02074392104507
  Br  2.49491917427049      2.84005428911392      0.02191645196308
  C   4.92047277403609      1.33075947124187      0.02028736390553
  C   5.57510268567630      0.11296293272009      0.01984114278174
  C   6.99910664153906     -0.05399404210911      0.01966355097613
  C   7.73326375696144      1.06025848044827      0.01980467016362
  O   7.15335269768848      2.28297522413825      0.02004413505299
  C   5.78551256411879      2.53697177977123      0.02029383736236
  O   5.43893983681375      3.67096601258225      0.02037863772633
  C   7.27301578328597     -1.51091820842573      0.01949164714987
  N   8.33720828463204     -2.18143664503428      0.01960833632139
  C   5.88406721533645     -2.20635830117193      0.01939680475182
  O   5.68789330246647     -3.37984677995038      0.01923457262190
  C   4.88174405161380     -1.08453387781451      0.01968577388203
  N   3.56352701327378     -1.14136644369642      0.01989266276620
  H   8.81236484477571      1.12923379182574      0.01975066877041
  H   9.16838589408406     -1.58767444877677      0.01981778867272
