24
Coordinates from ORCA-job 19730optt
  Br  1.05557324558893      0.15338680306123      0.20064815446464
  C   2.87832386094959      0.14926000287484     -0.28015302940319
  C   3.67362990239492      1.30587278794417     -0.14318261579998
  Br  2.96663742034342      2.91611231255605      0.51770835483742
  C   5.05743981057785      1.21010584225999     -0.35742989297792
  C   5.54932624036351      0.05090925968806     -0.88483790439242
  C   6.95579176850046     -0.27108205980152     -0.52683451380350
  C   6.78468038807932     -1.75119492198325      0.00275223441099
  N   5.50867582026282     -2.22750999748219     -0.63255237228191
  C   4.58413510904232     -3.09272116194865      0.01019702603186
  N   4.82268203713429     -4.12187161718703      0.69248325128789
  C   3.16272160630838     -2.52227144350635     -0.21494909918707
  C   3.45571722275775     -1.08893929428871     -0.58869367713455
  C   4.78485050198578     -1.06966776302913     -0.91730463423674
  N   7.22314177112318      0.83726309718411      0.37353834210512
  C   6.23613849505411      1.83715816787282      0.35735243460649
  O   6.33599074882291      2.90706049993962      0.88581864983142
  H   7.64700096659048     -0.26384185582101     -1.37344777572048
  H   6.66479002144965     -1.75346666055525      1.09065831028805
  H   7.62245166380476     -2.38568565475965     -0.27475425697776
  H   5.81720908425696     -4.34274367975508      0.72090846326473
  H   2.56013932633395     -2.63169420025136      0.68439562490300
  H   2.67403284999535     -3.07930247479308     -1.01776921165959
  H   8.15792013827926      1.12386401178136      0.62044813754350
