20
Coordinates from ORCA-job 19742optt
  Br  1.04830959319089     -0.35225173745991     -0.02110202383692
  C   2.89318922103508     -0.03123710383955     -0.07370780686287
  C   3.46096211327072      1.18588601731915     -0.00015713360563
  Br  2.38560414129196      2.69921088145696      0.28946030016381
  C   4.93148412318199      1.26205969380870     -0.04405807685851
  C   5.63506315757749      0.09866874241399     -0.04091685447702
  C   5.00757113108332     -1.18794395176254     -0.08462182885512
  N   3.62916222455885     -1.19602305284607     -0.18468857414876
  C   5.79206738638393     -2.27693183439111     -0.06604286946674
  Br  5.14609406565234     -4.02162747245560     -0.13245834728914
  O   7.15543159552357     -2.22656279058772     -0.03075510806313
  N   7.79508261489248     -1.03191099844140     -0.00717574398592
  C   7.09250790184141      0.04738602313597     -0.01196600698789
  N   7.84537191701477      1.21440332873626      0.03044150686432
  C   7.19862302012107      2.30847434154015     -0.00317867901856
  C   5.72765290355124      2.49373352144068     -0.11772607623880
  N   5.22659558322364      3.64883258571188     -0.31221911863889
  H   3.14108763234410     -2.07352225773517     -0.26949851264577
  H   7.77702159005536      3.23225170883110      0.02759975628226
  H   5.95911808420575      4.35910435512421     -0.34122880233073
