19
Coordinates from ORCA-job 19745optt
  Br  1.30661240183797     -0.15989111548637     -0.70955603160312
  C   3.11138569458465     -0.14360835213376     -0.20917781322226
  C   3.82976247754548     -1.30044584045677     -0.04612768336937
  Br  3.13769600300757     -3.01278941205235     -0.37131193755835
  C   5.20004988262766     -1.14222147536155      0.35265988698205
  C   5.53757428305048      0.12444031938762      0.73056842221016
  C   4.94716978647162      1.32016436416656      0.24543492773095
  N   3.62140452586191      1.14703712423921     -0.07472370994664
  N   5.80032647461138      2.27014984191974     -0.04397650747849
  C   7.07844912992000      1.63791228659947      0.08935263516825
  N   8.17392579367057      1.99021556301243     -0.48147903082491
  S   9.38720895387556      0.83887783698640     -0.60328962788300
  C   8.79326227438155     -0.87615696912996     -0.30562348703526
  O   9.51145959621350     -1.79145582947465     -0.60522975979890
  C   7.44344800241702     -0.89114534411089      0.23202873439440
  N   6.38643680004525     -1.81122057862665      0.13251326375166
  C   6.89416251768106      0.30106261848255      0.60512732520306
  H   3.08992297689165      1.90211069366793     -0.48641017222502
  H   6.48574242530505     -2.78903573162897     -0.09777943449521
