28
Coordinates from ORCA-job 19748optt
  Br  1.43598567927778      0.14813717748857     -0.67529235277948
  C   3.30756265084705      0.03507986956442     -0.40539218537250
  C   3.96603382997473     -1.19545262890821     -0.49224052998811
  Br  3.04756295592107     -2.80967865811312     -0.82086281681012
  C   5.35561715531296     -1.21851092667222     -0.29300427377660
  C   5.94457170554994     -0.00782450677678     -0.06341784327729
  C   5.19233252959097      1.14819497112197      0.07788586420107
  N   6.00302340581605      2.18819298668863      0.46741589274203
  C   7.25974370204512      1.61394375301123      0.96651296270047
  C   7.38446343436892      0.27609096407808      0.19375723226685
  C   8.09593048933296     -0.91301524086366      0.87469827213935
  C   7.19739289631941     -2.15343150382609      1.03352175687927
  C   6.26890327126844     -2.40508459481505     -0.16851788162814
  O   7.96500741486502      0.52638394823968     -1.10928374027920
  C   9.25966208767130      0.91349600615103     -1.13648676606803
  N   9.89919619775652      1.18865309591708     -2.17893119372239
  N   3.88527716599414      1.19094685001562     -0.10196454440667
  H   5.58348531444689      2.96910591421980      0.94691196203901
  H   7.19735570035117      1.40629006572150      2.04020240609952
  H   8.09965979397921      2.28028088589882      0.77703749829373
  H   8.48895202848239     -0.61959819505454      1.84951779214552
  H   8.95355391524086     -1.18493500380866      0.25746851710603
  H   6.56973620052852     -2.04307717020073      1.92072718461366
  H   7.83158542715113     -3.02481204411857      1.19869889441168
  H   5.70229870414881     -3.32340203262093     -0.03090888658335
  H   6.85614121197237     -2.51199858321479     -1.08573113122576
  H   9.74578254284159      0.97560715450823     -0.16217760750081
  H   9.30818258894458      1.08641744636870     -3.00514448221978
