20
Coordinates from ORCA-job 19746optt
  Br  1.28258909238508     -0.18960755894959      0.83603490199957
  C   2.95489027829262      0.17769412211366      0.05317592034397
  C   4.03131288954358     -0.71621959086015      0.12457039973401
  Br  3.83724018100074     -2.38500505921667      0.98121366550143
  C   5.34315501234111     -0.32854155278291     -0.28521957295793
  C   5.41834534549565      0.85568071445073     -0.93869233724936
  C   6.61108346622837      1.55398256017941     -0.53454617970746
  N   7.46498892484139      0.61250229120058      0.10523134015830
  C   6.74734687154030     -0.45129040147515      0.26749926786452
  C   6.31635991629613      2.89011239105084     -0.38632791866606
  C   7.09939439958773      3.89945383195793      0.21213994882401
  C   7.73813087415758      4.77258368110128      0.73066740208819
  C   4.82193785123480      3.01114039274961     -0.65170456127497
  N   3.86236836207786      3.62711406533465      0.01071703430048
  N   2.82450894683994      2.74784260883014      0.06248419296518
  C   3.17398250803751      1.50285141558757     -0.43268515177253
  C   4.36846704829332      1.73659806603188     -1.05620420614903
  H   7.14080071304551     -1.31565916005395      0.78748974859736
  H   8.30840386346260      5.54053512443338      1.19692679615192
  H   1.97369345529811      3.02623205831673      0.52222930924839
