22
Coordinates from ORCA-job 19740optt
  Br  1.21388454106817      0.48043817716267      0.02043005215626
  C   3.06554911371233      0.20670896561176      0.03188639193266
  C   3.63624345630687     -1.02539578437367      0.03353312816002
  Br  2.68103604487180     -2.63602612470800      0.02256395753970
  C   5.05940722055538     -1.04369219246429      0.04357521642239
  C   5.78832513728217      0.10953482106226      0.04850360850651
  C   7.17923954785321     -0.23710346559541      0.05891064217478
  C   8.25322606780369      0.55962905419405      0.06639650458103
  O   8.31533406622027      1.89054474284159      0.06468720081744
  C   7.28777037166933      2.85914522579237      0.05178559861742
  N   7.69323451343681      4.05479025324672      0.04471073121491
  C   5.86551541968504      2.58232605469214      0.04766537208531
  C   5.20381801303694      1.39628749218855      0.04525358219221
  N   3.81020874898276      1.35032646053006      0.03840145000336
  C   7.24856016454730     -1.72307378436261      0.06111633923781
  O   8.19372974587747     -2.46668128075411      0.06939109986489
  N   5.90375674402964     -2.12947081106551      0.05035066774549
  H   9.24539060982518      0.12302326463681      0.07534704766147
  H   8.71019445240041      4.09244822551527      0.04904072852033
  H   5.29419422695983      3.50043839948080      0.04288232021577
  H   3.31026022317385      2.22676988841977      0.03694785564521
  H   5.61612157070148     -3.09496758205122      0.04962050470502
