21
Coordinates from ORCA-job 19755optt
  Br  1.29128010742145     -0.01323814800547      0.60931001153661
  C   3.13328304584155      0.16687598367734      0.39146509127295
  C   3.81212034843614      1.34678776577463      0.36213282236585
  Br  2.87041227900379      2.94302547315955      0.68052511783847
  C   5.24757049363382      1.31995530764718      0.17794934819625
  C   5.85942040668887      0.11359928181604      0.17939077673037
  C   7.22305737014993     -0.33581670518632      0.09269054257256
  N   8.35803917975607      0.46498279920497      0.15068640022191
  C   8.49934136856256      1.81311354767741      0.18290443528925
  O   9.58822162229403      2.33442720066625      0.27484095709299
  N   7.37709272460187      2.64630354440438      0.07181715700544
  C   6.00967433934939      2.57111564338009     -0.14828672020286
  O   5.44925662760581      3.53455755640867     -0.60035559172219
  C   7.20655905339288     -1.69817859902432      0.06596204003088
  C   5.84345910978621     -2.19632888784223      0.12706820327445
  C   5.05728895599349     -1.10775889657604      0.21689491692394
  O   3.70758372185787     -1.02640077161942      0.26425039319226
  H   9.24812214639063     -0.00402130971951      0.22747704098696
  H   7.69698552082104      3.59650427704079     -0.07938090033901
  H   8.08463593719027     -2.32696987526281      0.03490340450710
  H   5.53859564122224     -3.22853518762121      0.09975455322585
