20
Coordinates from ORCA-job 19759optt
  Br  0.99973368941741      0.28318214914033      0.06999340310285
  C   2.87462789986186      0.08354839354944      0.07128676101442
  C   3.46754719277397     -1.14678958264995      0.07254672913294
  Br  2.50460732702549     -2.75692932596385      0.07383355908861
  C   4.88653605248537     -1.18886517435406      0.07290164172394
  C   5.82287143386667     -2.21552155832463      0.07359530277031
  C   5.85660596001078     -3.61692477457161      0.07405696187736
  N   6.97759428590013     -4.27894941448831      0.07444380848769
  O   8.14331847238013     -3.57749886750644      0.07441993952643
  N   8.24295427815653     -2.25797758639457      0.07399266490754
  C   7.13379262952381     -1.58044804574181      0.07358486988623
  C   6.98905035046247     -0.16188238034411      0.07287439671279
  C   8.06537346285972      0.82149995446436      0.07283945009356
  O   7.87616714007855      2.01449988973423      0.07226387639197
  C   5.61291677760829      0.05929555118461      0.07238458715032
  C   4.85572026851520      1.27121273795642      0.07143990948471
  N   3.55954870482363      1.25744989223800      0.07083112161198
  H   4.97540506190052     -4.24388718431249      0.07409358744942
  H   9.08623492267220      0.40430690034665      0.07351242776172
  H   5.35939408967724      2.22967842603780      0.07110500182519
