22
Coordinates from ORCA-job 19753optt
  Br  1.30441941032745     -0.35277300037711     -0.22053069529832
  C   3.17496373837300     -0.10510228585741     -0.25546034545758
  C   3.71496787736522      1.18711716985528     -0.31908185253115
  Br  2.67296051705091      2.75011648580537     -0.19782954808555
  C   5.09931863981839      1.30076177212601     -0.37308698632043
  C   5.81285674164766      0.14903155633042     -0.46176816805780
  C   5.33749456773166     -1.09846568136586     -0.14184394933807
  N   6.42921712181459     -1.83485908527134      0.33688201088597
  C   7.51518862150763     -0.98805454915573      0.66213542155996
  O   8.43766834847363     -1.29994461834098      1.34218794303732
  C   7.23728735174840      0.34124939726413     -0.15445149262091
  O   8.01884005222055      0.26715797269697     -1.35096408617127
  C   9.35093202600549      0.49187878347377     -1.24496166369730
  O   9.93749202371276      0.75128525905312     -0.24843569527020
  O   7.28234583330203      1.60524950443533      0.41854139532830
  C   6.11962047103860      2.36198384059759     -0.01877715371004
  C   3.96228709158899     -1.25945232860496     -0.09685321260919
  H   6.34972361599165     -2.72297166347035      0.80827887555416
  H   9.79662671961320      0.39676744218219     -2.24250052492631
  H   6.39338583528572      2.99767407237342     -0.86348786963457
  H   5.79560504612301      2.98265333123450      0.81432977731160
  H   3.48279834925936     -2.20130337498436      0.12667782005139
