23
Coordinates from ORCA-job 19750optt
  Br  1.07691036243517     -0.07262027066852     -0.17050252024285
  C   2.95982280062801     -0.01887984566493     -0.12218963737062
  C   3.63960100910413      1.20377728715116     -0.19352352608062
  Br  2.79624900213764      2.86659733797722     -0.36861865483118
  C   5.01719155812848      1.13174058598011     -0.14558154120484
  C   5.70341183578005     -0.06096913109529     -0.01673401487211
  C   7.15513182907376      0.24978818472685      0.08560971738010
  N   7.98635024986522     -0.52492478751839     -0.80338777288448
  C   8.02459882259176     -1.92707909261340     -0.40396161766441
  C   6.75380758029694     -2.67634972450059     -0.76912519862631
  N   6.61467503283539     -3.53626560424322     -1.66602369439720
  O   5.65064163643033     -2.46641193979104      0.04907165922673
  C   5.02054969590159     -1.25567068667707     -0.00754697248209
  C   3.63103903613492     -1.23133603431043     -0.04517865418678
  C   7.16285620315758      1.74157091582172     -0.24128227197579
  O   8.09818844327667      2.43554121795714     -0.44805720659356
  O   5.86745686171410      2.20787064207719     -0.24011541188872
  H   7.47569508461460      0.16461308767647      1.13988965139805
  H   8.92071516407934     -0.13136807618445     -0.82826374709394
  H   8.18520882508559     -2.04943539964772      0.67761601977858
  H   8.84889902434607     -2.40708309824146     -0.92726488455961
  H   7.48153998915899     -3.66883897902020     -2.18180211966201
  H   3.08345995322361     -2.16226658919114     -0.03202760116634
