20
Coordinates from ORCA-job 19762optt
  Br  1.79841628893848      1.25824161494460     -0.86405293661796
  C   3.37006929411977      0.50670414859042     -0.21207141482382
  C   3.47485621531284     -0.74876919252325      0.31453322155931
  Br  2.01162972652581     -1.92380517209043      0.36915956948434
  C   4.74093879870715     -1.14105621503695      0.87076729596221
  C   5.62776383277275     -0.13392745613897      1.03593827063142
  C   5.61672239486808      0.91642841075540      0.04790618134428
  O   4.41448597249309      1.36201616344997     -0.37651771050897
  N   6.74869616958480      1.08727937780247     -0.57496278035525
  C   7.53946229883133      0.06591200265152     -0.00789520879348
  C   6.95592583515422     -0.60456055789720      1.01795555646337
  C   6.95562237656311     -1.99460210084720      0.67127147403889
  C   7.81680644683713     -2.07361855780086     -0.37337349357216
  O   8.27087282454023     -0.80359222759325     -0.75587888858570
  C   5.53035117631264     -2.51095165571771      0.99107281908223
  C   5.06744354333780     -3.53762930546786      0.06921846440121
  C   4.71317550217739     -4.37290135200023     -0.71023019267321
  H   8.18905418647287     -2.88035538791558     -0.98172057052845
  H   5.44783297998898     -2.87496374586476      2.01944155857881
  H   4.38287413646145     -5.11484879130008     -1.39756121508707
