21
Coordinates from ORCA-job 19760optt
  Br  1.04217513761063     -1.03134152988235     -0.85972130087789
  C   2.82512535576914     -0.59779209529672     -0.41474847268111
  C   3.78915473824534     -1.63115561122866     -0.35393067669360
  Br  3.40792804827056     -3.42755170331416     -0.71777505286619
  C   5.09402954368384     -1.26441216353439     -0.02309387727872
  C   5.25043889528455      0.07996600519066      0.21584349110248
  C   6.56045959712396      0.50438214199167      0.50134235044703
  N   7.43975153688462     -0.44366543126387      0.49697441381461
  S   6.69014728497636     -1.92679368123233      0.15089610806388
  C   6.51380238953506      2.00681235815654      0.68081755375000
  C   7.44840711568856      2.80483110596055     -0.21434834205878
  C   8.86424474587033      2.83437297136759      0.30439045443026
  O   9.18703717286316      2.43853522508610      1.38725286778752
  C   5.00442871474301      2.34816598882062      0.37132894397338
  O   4.56746180764725      3.45493337196192      0.31926338513389
  C   4.27930022537300      1.03284534596975      0.11654336053394
  N   3.04083619831507      0.70451714194677     -0.20332798127012
  H   6.71053708050794      2.27527800103492      1.72277075692261
  H   7.09993022809061      3.84218521785145     -0.27628598116203
  H   7.45554226655640      2.42050347368101     -1.23812636350494
  H   9.60926191696054      3.27438386673292     -0.38406563756622
