25
Coordinates from ORCA-job 19769optt
  Br  1.12907584771935     -0.03472586042003      0.00599426211091
  C   3.01182538648889      0.03149613974907      0.13424022000517
  C   3.69064355352804      1.26121792163552      0.02238800132357
  Br  2.83469400641388      2.86801581785588     -0.45203186373297
  C   5.07662303573463      1.23632513942222      0.15590564094402
  C   5.61706164614915      0.04418820338756      0.54981688267775
  C   4.90694426109702     -1.11233932295720      0.38265405076461
  O   5.75771771298951     -2.15709133016968      0.12260428132784
  C   7.03866724275403     -1.62113973929249     -0.11353993377547
  O   7.92569521777231     -2.31143552021723     -0.48310730324785
  C   7.04909971694283     -0.14746272525635      0.30979332513748
  C   8.11609205488613      0.05543703539376      1.42311522784716
  N   9.29741611148771      0.52975665865427      0.72562872107461
  C   8.80193494686103      1.48194765626298     -0.26891587930238
  C   7.35992134354883      1.05252400492285     -0.64421044953008
  C   6.22415207523618      2.09960080259173     -0.32806648302314
  N   3.60840672152311     -1.15552827803430      0.21614830707027
  H   8.32697805048526     -0.84562889125112      1.99505938123583
  H   7.75896427620085      0.82982903000489      2.10799829043229
  H   9.74261707835284     -0.25441433144592      0.26097162172004
  H   9.46816347263888      1.51019023492811     -1.12869244606352
  H   8.78603301760308      2.48184202724063      0.17146207583822
  H   7.28692852621357      0.75147835889717     -1.68932866316503
  H   5.94331559711458      2.69405380495235     -1.19670662577521
  H   6.55102910025824      2.79386316314530      0.45081935810587
