25
Coordinates from ORCA-job 19777optt
  Br  1.35115893829591      0.01035727351330     -0.70732902932904
  C   3.13127741285391      0.04426341166427     -0.08422769320156
  C   3.80029851055264      1.27324470028897      0.13517421460403
  Br  3.00116920240558      2.94285436195357     -0.16314726490458
  C   5.14057306021505      1.21965936497077      0.47328255941215
  C   5.75171716637740      0.00791057064386      0.68763318453425
  N   7.12395545571078      0.15889830804738      0.67206812907482
  C   7.80231446284072     -0.92138910106717     -0.08425299241356
  C   7.28232644319108     -2.32855083545342      0.29656864210132
  C   5.74874334217630     -2.48573665022509      0.50057877354849
  N   4.92801835342076     -3.10614746214804     -0.55518878354331
  C   3.54200490013476     -2.57788224882653     -0.39707914590029
  C   3.80010074265193     -1.16306190633772      0.07160035433145
  C   5.09132558688002     -1.16191176397622      0.55439583861146
  C   7.35498759592762      1.51077865430738      0.41000083157879
  O   8.38159946674963      2.06333351825970      0.19292982632856
  O   6.12242683050433      2.17351122414334      0.42271380839451
  H   8.87162180013899     -0.85817636484096      0.10052485373322
  H   7.62308793957743     -0.73790146250886     -1.14732736042319
  H   7.77082754201753     -2.63028767029358      1.22366223787884
  H   7.61862861194568     -3.01609849500413     -0.48073905681449
  H   5.60500874688548     -3.00122424008179      1.46164481452498
  H   4.93916391964173     -4.11751057809311     -0.50206523645977
  H   2.95872069795380     -3.13692410169010      0.34658381080679
  H   3.00594327095089     -2.60700850724581     -1.34500531647386
