18
Coordinates from ORCA-job 19772optt
  Br  6.58643213161987      6.13838668856349      0.28719758436930
  C   6.72933763957913      4.28952367532644      0.09329819943945
  C   7.90278075861930      3.64157558805958     -0.10102388381426
  Br  9.50518342626818      4.61855585814011     -0.25428131982569
  C   7.99361316980711      2.17579243049901     -0.20066542619488
  C   6.84262906689546      1.46825020388164     -0.06177496038899
  C   6.66342477874984      0.02706559175213     -0.18843302370810
  S   4.98635463686958     -0.34646518354096     -0.63698172394775
  C   4.53726108881232      1.28907281780024     -0.33492250743832
  C   5.55917771527121      2.11554913434802     -0.01801558775715
  C   5.42626837599737      3.56559978476847      0.14520355474489
  O   4.36713985274343      4.13015780745271      0.27551931877818
  N   7.44240110076035     -0.94840332768880      0.06547587417984
  O   8.60264811058834     -0.51770075558912      0.76331028565980
  C   9.62691623291967     -0.14281197957504     -0.06048847158279
  O   10.59072700339457     -0.79117635888139     -0.26796350858841
  S   9.53451401178941      1.51524021612757     -0.71163678339246
  H   3.50719089931478      1.59878780855587     -0.44481762053264
