20
Coordinates from ORCA-job 19770optt
  Br  1.24286830227649      0.78068333553373     -0.86696407131404
  C   3.08444521662969      0.42331330634725     -0.95774489300222
  C   3.62815474871076     -0.74478623741416     -0.51648041419688
  Br  2.56819453892147     -2.10810352528118      0.22176631108235
  C   5.04197954532109     -0.94278708402849     -0.61990688985104
  C   5.80331445989901      0.02566614150726     -1.14763629597085
  C   5.52804646111736      1.29924380297093     -1.67411050002191
  S   3.89818465276244      1.80774405084967     -1.68049722332956
  C   6.71789166003517      1.87147158574897     -2.09107163516582
  C   6.78219557819544      3.18551583455747     -2.69648017018544
  O   5.77797583079306      3.84939385161209     -2.85641564732658
  C   7.85942265387701      0.94692668489983     -1.83033388753253
  O   9.02429607075713      1.13797393912750     -2.06549745501240
  C   7.22105750750898     -0.27741304736563     -1.20401287777276
  C   7.39327657781509     -1.50034811139183     -0.69101385891288
  C   6.03304279882773     -2.03107394982413     -0.27891543324290
  N   5.74208631735324     -3.14378502131800      0.23821664895361
  H   7.77254673182689      3.55090528879630     -3.00633818338556
  H   8.30344232476712     -2.06891526278119     -0.56534534253174
  H   6.57657802260478     -3.71662558254638      0.37478181871918
