21
Coordinates from ORCA-job 19779optt
  Br  1.81753244920792     -0.98750024111067     -0.48982037801895
  C   3.62738729760785     -0.55798739687128     -0.27880731199990
  C   4.64206148371312     -1.46158506700338     -0.20569251318105
  Br  4.23038339420348     -3.29690156166158     -0.31217852836312
  C   6.02394832905558     -1.03601424017426     -0.04853507732934
  C   6.20741048946041      0.32702738339344     -0.03334805088623
  N   7.29621667686823      1.16099624129914      0.13047468939417
  C   8.52918478456664      0.55884039038554      0.34836215827887
  C   8.78227429867800     -0.43080683466409     -0.52012601441829
  C   8.90113188738540     -1.78282062094290      0.02357152823576
  N   9.78781254751480     -2.56508257491488      0.42273238790892
  S   7.17826847791098     -2.38950333339507      0.17172740767825
  C   6.83632169146885      2.51362422957334      0.28752642861573
  O   7.57684202654111      3.42541512771961      0.51882985017844
  N   5.45594158521101      2.51089427244140      0.12082206541843
  C   5.11818273318961      1.26407204733537     -0.05078700165540
  N   3.86745274926637      0.78601776495409     -0.19601380812932
  H   9.00546417936726      0.69219972937620      1.31294170169429
  H   8.22696818826680     -0.39758318547348     -1.45186213542287
  H   10.71841649867020     -2.18218625766903      0.25633784712616
  H   3.09579823184633      1.43988412740246     -0.19715524512455
