25
Coordinates from ORCA-job 19778optt
  Br  1.12699927708271     -0.20925175824548     -0.09209995106044
  C   3.00964383578711     -0.00736594579816     -0.01219172110361
  C   3.57692510552604      1.28922706325092      0.00439014023967
  Br  2.56093376217974      2.86396131749693     -0.14151249142027
  C   4.95741688855136      1.38483396157644      0.08119766238754
  C   5.58911507637721      0.18177249769321      0.14926476297431
  N   6.95863097933609      0.21197266936503      0.08994314447655
  C   7.35822528771092      1.59249487275878     -0.25890367632754
  C   7.76928208946592      1.65359138930258     -1.73491397474998
  C   8.16867093628170      3.00247185993448     -2.11758493272072
  C   8.48104102655164      4.12529831980095     -2.39215975692163
  C   6.05376976465857      2.43075128691564      0.03209316103103
  C   7.40216726862771     -1.07036952810242     -0.22969223980840
  O   8.51220487378994     -1.37993704729631     -0.55943179200577
  C   6.16695721067177     -2.01810947511898     -0.08297022692220
  C   5.01447567083254     -1.05137484877520      0.05586353878804
  N   3.69484189837936     -1.14544882916670     -0.01382556336525
  H   8.18668728359981      1.92057108000331      0.36510037957733
  H   6.92385761090141      1.33086924442031     -2.35112935757939
  H   8.58732675936787      0.95080699019017     -1.90525706178644
  H   8.76265391077268      5.11803222724019     -2.65124805352980
  H   5.89678689226240      3.18974876752444     -0.73461302896300
  H   6.12841230741001      2.94509776059255      0.99194707971072
  H   6.31551702494653     -2.64681176191053      0.79735536262883
  H   6.10345725892885     -2.67083211365218     -0.95262140354959
