21
Coordinates from ORCA-job 19788optt
  Br  0.97358253770506      0.12145827318104     -0.05055696635534
  C   2.85432822518283      0.11598720031069     -0.04479005008465
  C   3.60709330399204      1.26227654489896     -0.12074876286916
  Br  2.71369891725486      2.90470877193461     -0.30905848006180
  C   5.04114836072647      1.18243062322891     -0.08632634904925
  C   5.87691177129400      2.32744432100694     -0.06886802679520
  N   5.57128642053591      3.63258181611004     -0.02148120693202
  C   6.76021234614572      4.24939263682821     -0.01358657672097
  N   7.85840954527796      3.47898511572166     -0.05576304103297
  C   7.32548486158329      2.25864775743945     -0.08464157249659
  S   8.21640783747469      0.85540496213138     -0.12651442420167
  C   7.04417897816910     -0.35018199106252     -0.08864570341159
  C   7.74800762613842     -1.66643759382517     -0.11267638312938
  O   7.25861638194418     -2.76187246131007     -0.09113045157334
  C   5.65044124436592     -0.13113712392388     -0.05501814826150
  C   4.80751357542180     -1.27885302068770      0.01249379023585
  C   3.45963353369657     -1.15629531562723      0.03371137016726
  H   6.83369844159491      5.32684143705995      0.02944592345715
  H   8.84838904476723     -1.55644344054797     -0.15858324187005
  H   5.25755420179636     -2.25586752570509      0.05071409663785
  H   2.82940284493257     -2.03207098716221      0.09402420434737
