24
Coordinates from ORCA-job 19781optt
  Br  1.06775201047279     -0.03470599909625     -0.07155335862298
  C   2.93505231098576      0.05946006993406     -0.07259571356707
  C   3.60891051192872      1.24467877937811     -0.07333622024700
  Br  2.72916508611901      2.90749326928373     -0.07387882372899
  C   5.03351685980220      1.28578148629597     -0.07362785934283
  C   5.65090232503854      0.08975005134909     -0.07340563120942
  N   7.00328753952224     -0.07454049673399     -0.07324978296581
  C   7.35044715370980     -1.49172842775791     -0.07427580675263
  C   5.97392798511622     -2.20196804928921     -0.07208368271157
  N   5.01518062157213     -1.10328737462468     -0.07327565596654
  C   3.62856273454510     -1.23784663102249     -0.07219919038772
  N   3.00948470805766     -2.35331626611403     -0.07102990733529
  C   7.88721193626601      0.99222615609833     -0.07459359658050
  N   9.14782941121160      0.91589595105853     -0.07580444581549
  C   7.23239919567795      2.38238269093264     -0.07440918633776
  O   7.89986261586385      3.38162676561206     -0.07461381381483
  N   5.85967372457861      2.41338424799333     -0.07401787374112
  H   7.93856133412998     -1.73946140241624      0.81065555306120
  H   7.93547464130771     -1.73880602065507     -0.96146814919100
  H   5.83279760133747     -2.82099786985643      0.81494355112565
  H   5.83159002013553     -2.82421079498258     -0.95663954848991
  H   3.63775282248467     -3.15105463770151     -0.07082047994600
  H   9.48303849502946     -0.04572792959163     -0.07585768097170
  H   5.44161835510697      3.33397243190619     -0.07386269646070
