23
Coordinates from ORCA-job 19795optt
  Br  1.17037369020467      0.41808724313854     -0.23368236194459
  C   3.03423246074475      0.16618572964900     -0.07264329376434
  C   3.57815893603911     -1.10434421852908     -0.02093796697525
  Br  2.56411705849331     -2.68067898973875     -0.13721506357399
  C   4.97217341443663     -1.21032335369321      0.10431287777712
  C   5.69081328940356     -0.02860094947692      0.16020569473366
  N   7.00238628136632     -0.34720406708290      0.24385755115440
  N   7.19144780673139     -1.68440476835206      0.23042219192613
  C   5.99371830617386     -2.21852897023474      0.16435821039818
  C   7.95144210088274      0.67831325504040      0.12428290139221
  N   9.24341911131913      0.20534231909073      0.05584181110627
  C   10.35804892511198      1.00767098771341     -0.07969415968535
  O   11.46798751021442      0.55819697947557     -0.15246467152453
  N   7.62771504023543      1.89729809272794      0.06808340948339
  C   6.24176539690386      2.35583117823809      0.16970253525995
  C   5.19668701545964      1.26192161435027      0.09524988571602
  C   3.83033710735120      1.34111533266289     -0.02252519347854
  H   5.87912791536820     -3.29027610065200      0.15783575039685
  H   9.37799868840751     -0.79793054266541      0.08880281075744
  H   10.11255112259883      2.07525656945647     -0.11239710198871
  H   6.07938425445561      3.09419446742243     -0.61763975908867
  H   6.14378932143364      2.89620663025669      1.11611570930843
  H   3.32832524666411      2.29767156120263     -0.08687176738609
