20
Coordinates from ORCA-job 19799optt
  Br  1.18217458045543     -0.31112962293552      0.25625373168606
  C   3.02852188218302     -0.06720083356390      0.14403854430584
  C   3.63536725433800      1.13236028312460     -0.01626766507299
  Br  2.62798046280987      2.70205454067356     -0.23958221218389
  C   5.07309132792005      1.18245055694579      0.02509351337600
  C   5.83123661105786      2.33148966724702      0.03452973335370
  N   5.60946330490001      3.68527834562429     -0.00066271662632
  N   6.76547134970252      4.33606753022962      0.02509757529727
  N   7.74816749035139      3.52409292728795      0.08449707991044
  C   7.23850418257891      2.23780726532728      0.10049078149982
  N   7.94396958435784      1.14516197836259      0.17889228260875
  C   7.28791286789493     -0.02862777810290      0.21700666542078
  O   7.81093294080415     -1.10665211645256      0.35557438944595
  N   5.79999250762123      0.00565176358110      0.08128729253643
  C   5.13708416000893     -1.25645522480923     -0.03958714906104
  N   5.59550559914038     -2.38053876818451     -0.33593827012801
  N   3.76379501222611     -1.18919323480310      0.25036612757791
  H   4.74910120387875      4.20098487847700     -0.06075115802778
  H   6.60759470503779     -2.37107746956951     -0.42568669335185
  H   3.31513297273275     -2.09452468845957      0.26534814743294
