21
Coordinates from ORCA-job 19798optt
  Br  1.13672580527243      0.15320098263669     -0.13331835451088
  C   3.01791837077092      0.09416214296414     -0.00390045545669
  C   3.76142811049745      1.26906441002361      0.06782156194187
  Br  3.01152912118265      2.97846715856990      0.06123769348192
  C   5.15526153573515      1.13789122153654      0.13896866145040
  C   5.69334760310210     -0.13339730208245      0.15242574958786
  N   7.02300880607097      0.05005978528615      0.20398526495094
  N   7.30459762889511      1.37089508085664      0.19528031489252
  N   6.20822514988279      2.02984284954401      0.17746616578226
  C   7.93877252689720     -1.05793772266297      0.01765123217778
  C   7.26670682228481     -2.33428927208594      0.57485524231248
  C   5.79058127032452     -2.56275907755955      0.19172107378525
  O   5.34707387708226     -3.67173668563758      0.07054939185611
  C   4.98226857509314     -1.32390107032768      0.09918568589584
  C   3.61318526943565     -1.18616086580324      0.01385856413162
  C   8.25690039881186     -1.21964514999857     -1.41425227105771
  N   8.48951764537570     -1.37819328478178     -2.52356641721087
  H   8.86412718371972     -0.84803098994505      0.55388087959038
  H   7.28475860170708     -2.26757795413012      1.66651661177283
  H   7.83493695614890     -3.21341890668533      0.27960056475069
  H   2.98412874170953     -2.06553534971742     -0.02796716012461
