21
Coordinates from ORCA-job 19805optt
  Br  1.14658468424128      0.50953908915746      0.15550664737397
  C   2.96604524986872      0.10696579702276     -0.03702651148502
  C   3.52465314448069     -1.08518786240918      0.24795471611814
  Br  2.49731669041765     -2.42033221689163      1.07588678147572
  C   4.96685507755867     -1.25466269162714      0.05387360018611
  C   5.66845608799179     -2.41644773099961     -0.08594249921322
  Br  4.93456292507708     -4.12123340313890     -0.40864974412887
  C   7.09499336111786     -2.35635491356884     -0.06511652831432
  C   7.72273103129641     -1.16341922844169      0.13516779952641
  O   9.06103925941091     -1.31374883924671      0.15793195246760
  C   9.29415244673481     -2.63550419811770     -0.03435317788199
  C   8.14261114188954     -3.32927614501014     -0.17759478400107
  C   7.08583560276333      0.11338288400473      0.26036538186185
  N   7.59599854438925      1.25284659290456      0.46638080456812
  N   5.67333908236174     -0.01907137107090      0.04959385694309
  N   5.09343548574791      1.14282495131411     -0.29298177619872
  C   3.82241336693269      1.19820049980135     -0.41306028976238
  H   10.32929337722150     -2.92934646464679     -0.04417778904809
  H   8.04012190183009     -4.38877460858793     -0.33540286299313
  H   8.60760717342461      1.16864454545697      0.52991468391752
  H   3.40395436524344      2.14295531409523     -0.73227026141172
