20
Coordinates from ORCA-job 19802optt
  Br  1.10912850876099      0.08048478140817     -0.04599840904991
  C   2.97012311484520      0.18556750003624     -0.04837448708486
  C   3.63653916419866      1.35597560386594     -0.05203359923726
  Br  2.73602351962600      3.00083136239388     -0.05759028191213
  C   5.09309456076168      1.38891947373510     -0.05192370960306
  C   5.91459446381529      2.47564318794737     -0.05234845312457
  O   5.69109502927074      3.77205685702799     -0.05260654548121
  C   7.02102748856171      4.42040072371193     -0.05266779124351
  O   7.06340521503305      5.59848440562699     -0.05253915664982
  N   7.98880785365648      3.45291556337102     -0.05268415328728
  C   7.35114117810009      2.31291469115716     -0.05235978013204
  N   7.84427885320637      1.08181245653831     -0.05210462979988
  N   7.08950374476447     -0.03518592065741     -0.05083854820401
  C   5.80239221352153      0.12632840302461     -0.05056344415154
  N   5.05857654223172     -1.02628146625892     -0.04874473230397
  C   3.67617354273451     -1.11826311796439     -0.04616214381884
  N   3.02644306051711     -2.20587265875578     -0.04278121071636
  H   8.84241021835111      0.92832568815695     -0.05230111344757
  H   5.58870304344655     -1.88585018939012     -0.04754952128739
  H   3.63453868459670     -3.02220734497503     -0.04182828946480
