21
Coordinates from ORCA-job 19808optt
  Br  0.90451615405476      0.06955204171436      0.20384432045682
  C   2.75693166111142     -0.16194531626024      0.04803177875556
  C   3.40012536919488     -1.34108100898143      0.23069137311720
  Br  2.44158986905900     -2.78684517599027      0.96668513675311
  C   4.86932536485414     -1.44335578192181      0.07026365752988
  C   5.61589470904311     -2.55556082468701     -0.18248128626457
  Br  4.85148545990386     -4.16421355352186     -0.79004434185881
  C   7.09055065413741     -2.57763687174622     -0.07781004631092
  N   7.86695491824527     -3.57543902662695     -0.23806239499257
  C   7.68292844300177     -1.28543464419622      0.24553355987893
  C   6.95251553553519     -0.17853561691739      0.34420670931279
  N   5.56715654263654     -0.21637245206761      0.22080366675536
  C   4.87666532672151      0.92958748584686      0.00668388447499
  C   3.53039415605281      1.01566728969484     -0.16622367387328
  C   3.33719134492943      2.41070416031017     -0.35908648162398
  N   4.45547853081025      3.06695255171253     -0.31106979165314
  O   5.45853478942471      2.11206531000348     -0.07338602409619
  H   7.35711204582919     -4.42316089068358     -0.47557617194803
  H   8.75661898313927     -1.24795044292887      0.35643260205289
  H   7.36270801446701      0.80645400821660      0.50995676169110
  H   2.41732212784841      2.94854875903063     -0.52839323815713
