17
Coordinates from ORCA-job 19814optt
  Br  1.28731865646738      0.46541984596044      0.15790767230782
  C   3.08810090329038      0.01660834393369     -0.01272364096631
  C   3.61790975048535     -1.19882352028296      0.23325026779545
  Br  2.57394105485265     -2.53599571738286      1.03437390654635
  C   5.05028452054741     -1.34837112944736      0.02752505187581
  C   5.83350787236899     -2.45562174519235     -0.13201923329042
  Br  5.16151915490807     -4.17748451858737     -0.46215388013730
  N   7.21592443723013     -2.42618955448701     -0.12500956325824
  C   7.75117988061634     -1.28648043727228      0.05074902784172
  N   7.07904177291272     -0.10953035741989      0.18275266248798
  N   7.95930543863302      0.96502251121737      0.34954849411775
  N   9.13261956044557      0.57555831197680      0.35612032438793
  C   9.18913687245723     -0.87882323575123      0.17110807313376
  O   10.17943451059871     -1.52397582029213      0.14148744189330
  C   5.70863152293110     -0.03650288551043     -0.00484540996817
  N   5.17359875696983      1.09915722536332     -0.21690273069505
  O   3.79154533428505      1.08203268317426     -0.41716846407237
