21
Coordinates from ORCA-job 19813optt
  Br  1.03795921941985     -0.31524917437141     -0.11766550893034
  C   2.88661891772537     -0.02894138658008      0.03461242329900
  C   3.49774532945107      1.17318877884620     -0.12797387948179
  Br  2.48143249676372      2.59485646332295     -0.83150879617332
  C   4.94174117754909      1.28598288531286      0.07412775060425
  C   5.71701373295975      2.40810397806484      0.23083342052427
  Br  5.04933396662251      4.12946402429818      0.64076691257116
  N   7.08830884899942      2.39696578387346      0.20239408274324
  C   7.67971418888917      1.28119567824978      0.08623311918800
  N   9.05068074899087      1.07849424590269      0.00661638852183
  C   9.21804701101733     -0.19261438305019     -0.07980751538821
  C   7.95009986134067     -0.95822498895950     -0.04829817494612
  N   7.68526605155153     -2.20703963161796     -0.05959930844650
  N   7.01572000291081      0.04789478318528      0.02969899208361
  C   5.62456997774852     -0.00564139633742      0.09209054546225
  C   4.96190250418792     -1.17351843557516      0.22316250632001
  N   3.58766186355288     -1.16242525938018      0.28783549431235
  H   10.19547894050394     -0.65014694408875     -0.16767405534254
  H   8.54273640573930     -2.74886620925583     -0.12907155366223
  H   5.46621722966104     -2.12263058715334      0.29352004540038
  H   3.08575152441519     -2.02184822468645      0.43170711134071
