18
Coordinates from ORCA-job 19816optt
  Br  0.94497297333696     -0.07127727223002     -0.09309132689221
  C   2.79724536677797      0.12021854056298      0.11605907910099
  C   3.51304393899033      1.18518075362105     -0.27136482954252
  Br  2.70277185542302      2.51944631541564     -1.33536717041443
  C   4.97627454951877      1.22526528334337     -0.09168791028137
  C   5.71773734304694      2.33136168373414      0.14183208909712
  Br  4.90660407566157      3.86756844561855      0.85502637919378
  N   7.12948538693980      2.34357114386543      0.07851787981813
  C   7.89531230564237      3.54776576141691     -0.05812141564594
  O   7.43760963054133      4.60522897711477     -0.34982843200787
  C   7.89195304286576      1.16455780287361     -0.09106528581162
  O   9.08560262709598      1.15761528369592     -0.07899430656912
  C   7.11021857238112     -0.13792078427262     -0.34652200561284
  O   7.70655143595327     -1.11590880775018     -0.67146160736194
  C   5.63727944518472     -0.08378508796372     -0.10504877774457
  N   5.10716238330997     -1.18519192044317      0.26585944339227
  S   3.54167783956531     -1.33605417793318      0.72696632293116
  H   8.95549722776474      3.34735805933050      0.10829187435099
