22
Coordinates from ORCA-job 19815optt
  Br  0.92193704276783     -0.06688568781539      0.28628617161762
  C   2.75961626146948      0.17703639007651      0.09410946013295
  C   3.43437065448893      1.32859381648327      0.26966754604419
  Br  2.50969998026924      2.80993461826306      0.96409326459880
  C   4.88223446661081      1.34739966862310      0.05643883174789
  C   5.73612200246218      2.38722410592334     -0.12373104596975
  Br  5.22981144148843      4.17380667427214     -0.48523706469130
  N   7.10357740808880      2.24042134099332     -0.13940463479077
  C   7.68649156642374      1.10682661368368     -0.04161689777497
  C   9.19584914024672      1.09136158285071      0.01980677624125
  C   9.80972645037767      0.35739464685842     -1.08661316627887
  C   10.30319657732230     -0.24843941719464     -1.99337302086559
  C   6.93981747013063     -0.16672291336910      0.06987709321362
  N   7.44643407455954     -1.32831388452737      0.19213975021134
  C   5.47627343238426      0.01408516188910      0.03302689567643
  C   4.69571480829350     -1.05951312753197     -0.15554776026159
  O   3.35571289684518     -0.99243341825980     -0.23202900404067
  H   9.51463998215325      0.64324839266740      0.96681716895777
  H   9.53102290878435      2.12738966286844      0.01175068776516
  H   10.74689652991821     -0.77683787259706     -2.80310210600329
  H   8.46200338204446     -1.31230161407356      0.12358731329512
  H   5.07985152287038     -2.06027474008360     -0.28694625882532
