24
Coordinates from ORCA-job 19828optt
  Br  1.04563375401427      0.39034701657862     -1.98208432773415
  C   2.59308275186460      0.03142629597021     -0.97500043100778
  C   3.13987508259200     -1.19940820284628     -0.89406064995048
  Br  2.39636323416997     -2.65682034880446     -1.82951945752555
  C   4.31971825012119     -1.45176266064073     -0.08503360361952
  C   4.98784794023214     -0.47511814487879      0.62573053896439
  C   6.11189306724053     -1.15657010407625      1.32856567901496
  C   5.59224849671090     -2.22405044385762      2.33061710985921
  C   6.47746892754596     -3.29350928820870      1.74507377747231
  C   5.82828138150312     -3.56886171798792      0.33464282775498
  O   4.63737769376657     -2.77368749979462     -0.04566366591333
  N   7.77702129629689     -2.56895106647809      1.71246638587878
  C   7.59163998329601     -1.16436402278258      1.71984389859533
  O   8.43521563736490     -0.34273340417670      1.90269365242260
  C   4.62332891406728      0.90994822599751      0.73217471635276
  O   5.18832116082756      1.74073440473360      1.39348824506640
  S   3.17993395688856      1.45152116110298     -0.19566208838655
  H   6.39299264028801     -1.70794680723151      0.44076376369653
  H   4.52720341432813     -2.41681537042837      2.25657066213609
  H   5.85305097874008     -1.96862233374619      3.35708392705913
  H   6.59082430681861     -4.22696632141810      2.29450891784576
  H   5.40838513988184     -4.57139025743896      0.31090099646851
  H   6.56574129095141     -3.48009906167558     -0.46393284983098
  H   8.57855070048940     -2.94530004791146      2.19383197538057
