24
Coordinates from ORCA-job 19824optt
  Br  1.24350209768529      0.30722167335100     -0.97349962403848
  C   3.03795469817047     -0.01032171179062     -0.45897010215687
  C   3.49471849722646     -1.31981579764105     -0.22588115525925
  Br  2.41923227530311     -2.84707546289652     -0.42438061508178
  C   4.80325745057250     -1.43053144984876      0.17810059581012
  C   5.60273684081492     -0.29740196894350      0.31173683725804
  C   6.96742328657891     -0.78238332326956      0.76281736102215
  C   6.53665408434725     -1.96359321871606      1.66556646702675
  C   5.70657871606663     -2.59519353787182      0.53879452136476
  O   6.68869591676666     -2.69175928104751     -0.52455706307753
  C   7.48828611663806     -1.59251616655900     -0.42576216478489
  O   8.39444167845252     -1.36783098495150     -1.16036471843848
  C   5.07426426462749      0.94462035993865      0.03417455275754
  C   5.85406678164612      2.21494105036503      0.17139052459964
  C   6.32834967412266      2.48616313850335      1.58178206104198
  O   6.27884644280180      1.69435063386248      2.47994256364974
  N   3.79098393306454      1.05397798738238     -0.33179220920201
  H   7.66739179083803     -0.04895424193121      1.14100326550803
  H   5.94813945520791     -1.64045445573375      2.52081065512506
  H   7.36404599136004     -2.60281325710213      1.97136378288238
  H   5.25143816521557     -3.56761095418814      0.68319929842610
  H   5.24827586533782      3.05830404522024     -0.16402943614683
  H   6.75161193524171      2.20155204841038     -0.45924993210334
  H   6.75910404191345      3.49212487545761      1.73880453381720
