23
Coordinates from ORCA-job 19822optt
  Br  1.20870915749399     -0.08772121020798      0.11080025105554
  C   3.07767959069850      0.08288721953501     -0.02184409929522
  C   3.90272193841753     -0.99104526179798     -0.40458844884363
  Br  3.19548513465249     -2.68566560743485     -0.84201199445838
  C   5.25859332819884     -0.78382874307605     -0.46040281593903
  C   5.83929865307199      0.45444881417276     -0.15482404011078
  C   7.31698112158382      0.18658691747361     -0.35276823739612
  C   7.43329213129112     -1.20466551220476      0.34354487129703
  C   6.46541534322882     -1.63103441236013     -0.80315846503184
  C   7.26885307368148     -0.62425019328140     -1.68404453081173
  C   5.04072816458711      1.50505753225020      0.20564043222439
  C   3.64619527554123      1.30746111113289      0.27093812036803
  S   2.82551793976021      2.77551776167268      0.73815390452537
  C   4.38000628598838      3.66928605086057      0.83750432273441
  O   4.49604634263974      4.82648157281884      1.12509049649081
  N   5.39921443953592      2.80117161105223      0.52991620525890
  H   8.03148938011068      0.98650062749763     -0.18074023039787
  H   7.07327970072690     -1.29071443260177      1.36728196391067
  H   8.42443998871282     -1.64171532399253      0.23090907232169
  H   6.30559639788964     -2.66555389582639     -1.08623752265588
  H   6.75787584114656     -0.17303808342174     -2.53256472449558
  H   8.24624928530519     -1.01202493799889     -1.96708541993131
  H   6.34833148573699      3.14085839573803      0.53349088918051
