21
Coordinates from ORCA-job 19820optt
  Br  0.97787855901116      0.19629832896470      0.15866920840146
  C   2.84701928297897      0.06559227959187      0.06609322426105
  C   3.54304228942270     -1.11251383056592     -0.04687826860016
  Br  2.60923604607808     -2.74908954567604     -0.15427810268288
  C   4.97812626530466     -1.14157950622442     -0.08950325251484
  C   5.69455191612793      0.04426033722766     -0.04551422425216
  C   4.97839493300969      1.24765198892309      0.05748051411531
  C   3.59219425930610      1.24520397522924      0.11810789718149
  N   3.27196640248662      2.55657264056929      0.21095662327265
  N   4.38179138876277      3.30660854198133      0.20367587924009
  N   5.40731535550473      2.55000181817417      0.11262254397522
  S   7.45512895938444      0.14112156225341     -0.15586229266309
  O   7.94742501522306      0.81770084563303      1.00691207624469
  O   7.79211390061775      0.64990515702719     -1.45362202794177
  C   7.87466571419709     -1.53728211740610     -0.06809306029854
  C   6.97250914498777     -2.52037059300734     -0.10339642513325
  N   5.61697710088494     -2.36030753526353     -0.15631762622625
  H   2.36602819226614      2.99234705164017      0.27290269027299
  H   8.93471785845161     -1.73424852969500     -0.00713093562725
  H   7.29365828655984     -3.55339706899011     -0.08035081954199
  H   5.04125912943385     -3.18547580038669     -0.16547362148275
