23
Coordinates from ORCA-job 19826optt
  Br  2.09106039917542      1.10924993946210     -0.28086346605038
  C   3.79333537118122      0.35131474223429     -0.21885290122349
  C   4.05669548457713     -0.96810409063438     -0.21480617674774
  Br  2.70918982934430     -2.26857763513174     -0.25880340935734
  C   5.43168934243722     -1.39531150289305     -0.15471887129962
  C   6.03315856696300     -2.60220382903485     -0.11200215132395
  C   7.48040621635444     -2.44943159985291     -0.01983991968395
  C   8.36151188951395     -3.42093012485538      0.33320689004922
  C   9.72090249720487     -2.92416697313652      0.48404963775925
  C   10.05645018044999     -2.03860763129948     -0.46694780802131
  C   10.14806879612921     -0.62286207687576     -0.09024578128793
  N   11.13215580599318      0.10375853611871      0.20298391462215
  N   8.78893758061966     -0.15415294511077     -0.04630192176810
  C   7.76692846761152     -0.92870070604917     -0.07852820050280
  C   6.41550792068818     -0.33114152474717     -0.10949949235819
  C   6.05594847983048      0.94834188859569     -0.12476562514584
  O   4.74440418334243      1.31350978032225     -0.17369621912977
  H   5.53139858855355     -3.55822291276895     -0.11662914962695
  H   8.01321112508734     -4.40006300945817      0.64312709970800
  H   10.17235674514498     -2.90796797975239      1.47221520198503
  H   9.56406783317886     -2.17035716791927     -1.42734019877818
  H   10.79757999340952      1.02912590902122      0.47557919570953
  H   6.72003470320947      1.79850091376571     -0.10032064752764
