25
Coordinates from ORCA-job 19834optt
  Br  1.17035803094096      0.05245637477657      0.44595809451861
  C   3.02693789658695      0.20945497558215      0.25721349843290
  C   3.67368638842183      1.38268360848073      0.06497209148800
  Br  2.78896534357850      3.02768082876787     -0.07503676384755
  C   5.11020362547893      1.34055768261130     -0.01541704979882
  C   5.79871462584008      0.16800898851570      0.07749904658822
  C   7.28254330159378      0.12988434756066     -0.07616659504634
  C   7.84459325605070      1.42537704622682     -0.65674725164220
  C   9.29131184262207      1.36722895962641     -0.17887574242546
  O   9.23889461503834      0.70284866055390      1.08592453389033
  C   8.06858842392279      0.00888469808892      1.21919012872486
  N   7.70967583590227     -0.59635414873395      2.25325272004364
  C   7.11376386465149      2.58696062003271     -0.00231875452945
  O   5.70533852004898      2.52775698608362     -0.20507897625881
  C   5.09736677692167     -1.08998116221554      0.19020971055518
  O   5.59794361197909     -2.19414429235014      0.14463139262732
  N   3.71047946025431     -0.95993278291763      0.32699236726639
  H   7.54915590649800     -0.73307362392724     -0.69504774216070
  H   7.76013462959687      1.47717057178114     -1.74125278049114
  H   9.91608122545563      0.79112890379420     -0.86425423092478
  H   9.74175515134764      2.34794995529223     -0.02331756327504
  H   8.41902135558275     -0.53609178568741      2.98233624614849
  H   7.42566058063669      3.54558647841570     -0.41163008994665
  H   7.30720379865080      2.58337056868455      1.07617674398434
  H   3.20462193239878     -1.82841245904330      0.43178696607867
