23
Coordinates from ORCA-job 19835optt
  Br  1.00229168444463      0.23461753610628     -0.05933426044305
  C   2.86634294979323      0.01788954701371     -0.08486832258113
  C   3.46865259622960     -1.19525873520086     -0.06566700642412
  Br  2.48276138182838     -2.78925511835553      0.00315098726349
  C   4.91510105330818     -1.30922546692858     -0.09201451529079
  C   5.61819622977222     -2.47792643666751     -0.10389829803944
  C   7.04018075992637     -2.47666752007427     -0.11582508702830
  C   7.83119151684426     -3.58353847024856     -0.13928332047149
  C   9.27654908055578     -3.48809951162512     -0.13229965414918
  O   10.01996029562988     -4.45696157413119     -0.15451838129674
  C   9.84709460488274     -2.11784698841188     -0.09206984358810
  C   9.08344306777744     -1.02014240279774     -0.07787018689868
  C   7.64181891451623     -1.14405899850413     -0.09518897881776
  N   6.96034130672161     -0.04184576041870     -0.09400633964636
  N   5.61797201666642     -0.10431450696470     -0.10185869273223
  C   4.98892513795729      1.11499967382878     -0.12100018794163
  C   3.65000205663920      1.21365722295249     -0.12039116327487
  H   5.08322713260989     -3.41462409484990     -0.10137243439423
  H   7.39956390306238     -4.57594910017638     -0.16115494981947
  H   10.92853745517728     -2.06221790238768     -0.07705671649861
  H   9.49423691065254     -0.01926236892907     -0.05113078364621
  H   5.66620418118238      1.95448906981271     -0.13616181314548
  H   3.17140576382200      2.17954190695786     -0.14018005113561
