25
Coordinates from ORCA-job 19830optt
  Br  0.87988802997971      0.45073287966334     -0.74122613237036
  C   2.68831449711444      0.20666440823432     -0.29312192187227
  C   3.64587935934476      1.12875339240835     -0.53686969167925
  Br  3.22718965358270      2.78124475587697     -1.35096529777373
  C   5.01840854472486      0.89184961610460     -0.19434060448214
  C   5.50336678706746     -0.22032460805538      0.41569117255107
  C   6.99541195262828     -0.11883495761895      0.66595699905054
  C   7.81945472931278     -1.36553048438588      0.37464939533359
  C   7.61220513376247     -1.76532527458571     -1.07518370076621
  C   7.85027090697314     -0.63008389527705     -2.04204111662455
  O   8.08953063753355     -0.79493658026167     -3.20055490654388
  O   7.80523279455537      0.63575320729221     -1.56719845737288
  C   7.39675214156854      1.04033078415208     -0.25435302764619
  C   6.13177818700798      1.88373793499898     -0.41760166502470
  C   4.71780384620342     -1.34917707410208      0.85658150718483
  O   5.12201705649397     -2.31699798081401      1.45273077991780
  S   2.96525316895637     -1.31690865841125      0.46381120562516
  H   7.15624831082131      0.19293255945649      1.70311610468533
  H   8.87227441964700     -1.13169896667686      0.55253730301863
  H   7.53736321599387     -2.17730634460315      1.04061421353339
  H   6.58654280269265     -2.11098410053580     -1.23427071783503
  H   8.26492118067756     -2.57849622045066     -1.38669962861176
  H   8.23248161899327      1.61118026198526      0.14814007965159
  H   6.09694625866438      2.36363109558196     -1.39386998950461
  H   6.07046476570006      2.66879425002388      0.34246809755564
