22
Coordinates from ORCA-job 19839optt
  Br  0.77591954860309     -1.04958325989035      0.47407011838124
  C   2.58766866913610     -0.55859400899223      0.36748790651302
  C   3.55793319619233     -1.38724225169433     -0.06784607112670
  Br  3.13320589940703     -3.14470719695806     -0.59240556920612
  C   4.95493630254713     -0.97754509222955     -0.15664184761204
  C   5.38600348806332      0.27086575887175      0.21738716306611
  C   6.83201801335092      0.63861635487811      0.00804586768871
  C   7.56910300058807      1.39034466119492      1.13063530981820
  N   8.90906831154918      0.81915340135381      1.00724555871834
  C   8.90939599754824     -0.42561651363713      0.45400279995742
  O   9.78296101882656     -1.24743004236616      0.40733334589603
  N   7.61348317096889     -0.58513328727792     -0.08398081582034
  C   7.08232707015411     -1.75271280598318     -0.49010873502451
  N   5.82075332630113     -1.96101332309819     -0.62137725062632
  C   4.55816516119092      1.35295689214328      0.68206998399787
  O   4.97157613613239      2.46587706113072      0.93477899145135
  S   2.81637802272632      1.07036068572184      0.88539556702668
  H   6.94594681338264      1.20970409979953     -0.92244865015394
  H   7.12532914092279      1.17648580610966      2.10684831365903
  H   7.56661760027525      2.46187295850121      0.96440068645872
  H   9.66111275251256      1.05821111389159      1.63241701459033
  H   7.79909735962095     -2.54687101146931     -0.67630968765310
