23
Coordinates from ORCA-job 19838optt
  Br  1.12835873325908     -0.14685815263642      0.08053455728649
  C   2.98781520175383      0.06459706904649     -0.01042021347133
  C   3.62452641308921      1.25539860345220     -0.12439508648735
  Br  2.65771636461281      2.86430183495393     -0.29814955595483
  C   5.05903828729649      1.25688383936280     -0.16675295868342
  C   5.75306728323368      0.07443863282788     -0.15505573296109
  C   7.18427682296264      0.19201855822877     -0.18440934886286
  C   7.78061209810963      1.35136974972077      0.09144847677071
  N   7.12220436076591      2.51472645019192      0.33507980414470
  C   5.82271107814904      2.55967203378976     -0.34657790343317
  O   9.11089212562708      1.17168036301791      0.27594731640634
  C   9.34195589199479     -0.18608849257157      0.08947501223124
  N   10.44059208919451     -0.76941022563890      0.13005918404943
  O   8.16338087302889     -0.79918545456938     -0.16897811822558
  C   5.07723175244011     -1.21631799520997     -0.04944644764585
  N   5.56264929861769     -2.39160182539038     -0.02407242172786
  N   3.69042067191073     -1.09492537037126      0.04292998832816
  H   7.66767618681643      3.36196422381316      0.28302290335989
  H   5.95120754956811      2.73316259938160     -1.42629197419958
  H   5.25864638322684      3.38954918349581      0.06664417534819
  H   11.19678482295822     -0.12630463494922      0.33742525937130
  H   6.57437519992421     -2.39015852838083     -0.08464037392661
  H   3.19686051146000     -1.97191246156507      0.13662345828311
