22
Coordinates from ORCA-job 19844optt
  Br  0.98470622197497      0.07164336037060     -0.39711369094401
  C   2.84345986271953      0.01996637925203     -0.17592358938757
  C   3.61910275107159      1.11778436569318     -0.07690834662225
  Br  2.81715441954148      2.83042966376011     -0.14032884937652
  C   5.08086244708811      1.02897485239953      0.06012541805597
  C   5.86310886205470      2.15604940385375      0.02369837407609
  C   7.30433098849801      2.37617068965098     -0.00401938868329
  C   7.96030004356488      3.57228816595381      0.01227412965686
  O   9.27582363474285      3.38747350289540     -0.15212989322462
  C   9.51399436219136      2.05162959036221     -0.30987478335525
  C   8.34539209695974      1.38615660510729     -0.21098193324707
  N   7.81076299560017      0.11139849084479     -0.42751130818471
  C   7.03065591471222     -0.16446113302117      0.53740609638765
  C   5.60156863687259     -0.35405406287383      0.23296487482919
  C   4.85010561355301     -1.44850409182520      0.15517857623796
  C   3.41191515621546     -1.35996480211873     -0.11541508978012
  O   2.72591961678457     -2.34568347768639     -0.24770430344632
  H   5.31376336190061      3.08716405581589     -0.03584912508457
  H   7.62982114978599      4.59072787970157      0.13135353304916
  H   10.53596302101846      1.76242163812365     -0.47192059733370
  H   7.21024985187737      0.24249865474360      1.54215924907446
  H   5.25803899127227     -2.44110973100308      0.28952064730267
