21
Coordinates from ORCA-job 19847optt
  Br  1.11894505966827      0.05747411228431     -0.13819146568118
  C   2.98477920399945     -0.07040797576598     -0.10710282714335
  C   3.65050547836571     -1.25824840886070     -0.09474914445340
  Br  2.83250238293854     -2.93844900622006     -0.09901520157305
  C   5.06301224559054     -1.13552152650844     -0.08097432918910
  C   5.73581533476362      0.05144356516047     -0.07624840896889
  C   7.13989094347210     -0.29137333665749     -0.06666604901940
  C   8.32904348218626      0.33902834407298     -0.06191218586339
  O   9.47441150931901     -0.34868875108484     -0.05617478750818
  C   9.55832076950087     -1.74985274420871     -0.05449094316921
  O   10.65291578884804     -2.22709265554804     -0.04968688457019
  C   8.29601468924446     -2.45857741468975     -0.05959176902710
  C   7.16916859778806     -1.72876946234680     -0.06580643403059
  O   5.89529307964276     -2.21585329944091     -0.07374063250735
  C   5.02878295676559      1.30597605828032     -0.08264444540478
  N   5.45420053939604      2.50609416610483     -0.07545548913885
  N   3.63726117241113      1.11777734881415     -0.10042682473972
  H   8.48811408640054      1.40756754637792     -0.06292620689537
  H   8.31877576148161     -3.53691639146769     -0.05917304540124
  H   6.46681605400901      2.54292218862939     -0.06245038597587
  H   3.09843086420836      1.97346764307504     -0.10857253973977
