20
Coordinates from ORCA-job 19848optt
  Br  0.84622309733428      0.09696884109686     -0.18793537360467
  C   2.71790678523456     -0.01450252361394     -0.08410497740337
  C   3.38646167842998     -1.19830637765450     -0.15818096218112
  Br  2.47036537968098     -2.82788807852702     -0.38718672819455
  C   4.82706550017954     -1.23016954900759     -0.10020576261198
  C   5.55496987594025     -0.07921412830732     -0.02205452225199
  C   4.87682353544134      1.17450583644743      0.11801018835898
  C   5.40516601173917      2.43359242317933      0.32903384650450
  S   4.18412155483178      3.59170118573088      0.47544325713645
  C   2.93921423139916      2.47601167304578      0.26907719353916
  C   3.44158013313993      1.20339744484348      0.09146144570107
  C   7.02584579121335     -0.11475011290197     -0.14026654445316
  N   7.76993785590652      0.71587070396401     -0.71038283866275
  O   7.67414487009066     -1.16333432774866      0.48400565572238
  C   7.24372405906246     -2.43660913539843      0.44363639892359
  O   7.94332325106941     -3.32963937401635      0.78949113777230
  S   5.60810336977552     -2.80640947520239     -0.15216810406986
  H   6.43853891496764      2.71485964260599      0.44776914520499
  H   1.90607842844912      2.77873738472345      0.29120911188124
  H   7.22040567611433      1.45917794674094     -1.13365156731120
