20
Coordinates from ORCA-job 19850optt
  Br  1.10502168601475      0.20838546786427      0.08523465296977
  C   2.95331548803165      0.02549913419960      0.08749436975386
  C   3.64046269479754     -1.15692069203834      0.08899229262282
  Br  2.74359386038386     -2.80633308881738      0.08971156459385
  C   5.05735141848314     -1.15431271871452      0.08997085014177
  C   5.76429485867058      0.02834389875851      0.08959600443089
  C   7.18295456085177     -0.25646100564960      0.09084353614322
  C   8.39988760260097      0.35704682127395      0.09124978691417
  S   9.58785259986006     -0.86467715268302      0.09330364113443
  N   8.54493562908262     -2.14140093383820      0.09351955464442
  C   7.33219831432519     -1.67261061780065      0.09213145910924
  C   5.98568041635836     -2.34871478528232      0.09160697938217
  C   5.05240386795481      1.24160335857591      0.08838038381086
  N   5.40250971075104      2.51566324819117      0.08800699836695
  N   4.26053873987200      3.20233713957625      0.08673606765371
  N   3.22178129659540      2.44744823866647      0.08632478707164
  N   3.68794976474347      1.18288042800261      0.08738829533747
  H   8.64283091126704      1.40779088328466      0.09058747271980
  H   5.83151176473028     -2.97811492174944      0.97081822305562
  H   5.83292481462547     -2.97945270181994     -0.78689691985666
