22
Coordinates from ORCA-job 19852optt
  Br  0.84989503621171      0.41004493683336     -0.23047250923839
  C   2.71260133194880      0.34183549930288     -0.13216086831711
  C   3.51111682420901      1.42395544624452     -0.17770716385298
  Br  2.74996932454355      3.14473976217243     -0.32423795110694
  C   4.96827349819653      1.30268557268316     -0.11393878327233
  C   5.76297176627726      2.41144237014041     -0.23655183275481
  C   7.16670121686594      2.54621465995023     -0.21067435437021
  N   7.73797944418564      3.73268070849900     -0.35843749840088
  C   9.08517580260406      3.52734954809186     -0.27024288926574
  C   9.41230986785840      2.20705222481286     -0.05902815128138
  C   8.17100303590956      1.52121336072641     -0.01474108745549
  C   7.94372446454256      0.19131462568013      0.17308000412255
  N   6.76750824129213     -0.44002615190958      0.20005570895601
  C   5.42131757384645     -0.07086769188545      0.05856673296236
  N   4.66602206363812     -1.11344639947532      0.11257906726838
  C   3.28668346886472     -1.02511211023963      0.00139929445562
  O   2.59439108658693     -2.01049570411291      0.02052900551885
  H   5.26519073270197      3.36152214797261     -0.37991810107372
  H   9.76358597648964      4.36198970738469     -0.36398452810082
  H   10.39560501569552      1.77775760509354      0.04957896078780
  H   8.78615724405475     -0.47560362041441      0.31755864159619
  H   6.79781698347669     -1.44524649755082      0.33274830282305
