22
Coordinates from ORCA-job 19853optt
  Br  1.03206334855687      0.26415107431088     -0.23998409295633
  C   2.89611714228673      0.17586797645411     -0.11302430046755
  C   3.66727295844344      1.24635440160165      0.15567563835045
  Br  2.87752194293072      2.93138869250212      0.46040227687183
  C   5.13961340575430      1.16279599346864      0.19237238791441
  C   5.88787596858787      2.27306143127570      0.00349447604218
  C   7.30863407380179      2.42672244328928     -0.16221290213179
  N   7.77800794935759      3.57565040337105     -0.53914731791519
  C   9.18243063086539      3.46932427769570     -0.58405863997078
  C   9.62947054585123      2.26714372261295     -0.17964349075716
  C   8.43607610832270      1.49093459956851      0.12138445759277
  N   8.44807795690475      0.31919742899908      0.62937562892606
  S   7.22257192857929     -0.66800329533263      0.99983859014348
  C   5.67601281300674     -0.19925394737246      0.27898593779990
  C   4.91744213385675     -1.26494821738163     -0.01961966595003
  C   3.49470751720533     -1.15850487655445     -0.33516173594993
  N   2.77235566682308     -2.12601450990144     -0.73802179764462
  H   5.37248222300396      3.21502225537963     -0.12783522230389
  H   9.75698978670751      4.32406405392538     -0.90625431271188
  H   10.64055751354038      1.90714436795914     -0.09036010979409
  H   5.34099730653984     -2.26312911780947      0.00249187058525
  H   3.32672107907364     -2.97696915806176     -0.82969767567307
