18
Coordinates from ORCA-job 19857optt
  Br  1.10358529209563     -0.40795954861719      0.34298045881750
  C   2.92056307071565     -0.04276904060390      0.19656575582051
  C   3.50185674436796      1.16787237988034      0.22039375214811
  Br  2.44228443172415      2.69958075963502      0.43686013041678
  C   4.94890559522889      1.30780473703584      0.07904543492582
  C   5.54889386022311      2.52750761076451      0.08105099007285
  C   6.95408633255135      2.68796649124534     -0.05743592938247
  N   7.62272045027696      3.77841425387471     -0.07872357923480
  C   8.99546373268586      3.37002100892693     -0.24358719677278
  O   9.92027999465477      4.10794466252302     -0.31575310157395
  N   9.10384708805188      1.91888831137443     -0.31546393930316
  C   7.90208881975604      1.52832388296478     -0.20743314561424
  S   7.41037293200341     -0.11818291762671     -0.22674084583990
  C   5.66494901949329      0.03911047371440     -0.05829048490512
  C   4.96359841478758     -1.11111798003917     -0.05991528395201
  Br  5.70613977364935     -2.81201148857479     -0.21942291024375
  O   3.62732735339625     -1.18202786858314      0.05550014580042
  H   4.96003709433786      3.42563427210556      0.18536974882019
