20
Coordinates from ORCA-job 19860optt
  Br  1.01422044008749      0.07739196944449      0.02946500026614
  C   2.89087896272100      0.03618443353444      0.03188201833750
  C   3.59303560414665     -1.12894715018171      0.03244547079662
  Br  2.72684638185539     -2.80296003630954      0.03138887073725
  C   5.03769520911193     -1.11017681215618      0.03372780187217
  C   5.74012484032847      0.07584169003811      0.03442350113788
  C   5.01687590442732      1.30959555831472      0.03427920246195
  N   5.55369025863918      2.51983383813500      0.03531297695519
  S   4.37347715437034      3.62940398818886      0.03471836238860
  C   3.07986422960623      2.56718573512541      0.03301864298908
  C   3.58145541231323      1.28011536387395      0.03295430083655
  C   7.20424898681207      0.04011873215412      0.03514324974519
  O   7.94845373181673      0.96308928443969      0.03555647825896
  O   7.77357498867826     -1.23012018877094      0.03526375807775
  C   7.09176086896588     -2.40052247223829      0.03497100762943
  N   7.64056791695229     -3.52980497212404      0.03535456804648
  N   5.71519000952359     -2.29160599778687      0.03412829682670
  H   2.04733371682617      2.87753778474643      0.03228079397582
  H   8.65209380634421     -3.44109083818935      0.03592512815731
  H   5.21861157647352     -3.17006991023831      0.03376057050343
