26
Coordinates from ORCA-job 19864optt
  Br  1.13220274535699      0.02536988071718     -0.11916730641349
  C   3.01543358656794      0.04508950599497     -0.00669487919290
  C   3.73629579399586      1.24176797697304     -0.02278757703054
  Br  2.90304272427592      2.92859610967888     -0.14847944177274
  C   5.11319363559743      1.18742294597262      0.04892932136426
  C   5.77630536730403     -0.04170506192559      0.13531232306548
  C   5.06398907257270     -1.22988798134932      0.15569244606775
  C   3.67862428543523     -1.17340866351628      0.08480366252057
  C   7.21832513225447      0.22526370587348      0.17678412804866
  C   7.42687355041998      1.54993704854230      0.13097207982583
  C   6.12467942742623      2.29532587790427      0.03916528673808
  C   8.76800602577632      2.21555172126594      0.10368493308715
  N   9.85229471670170      1.32451169739132      0.51849777318260
  S   9.86704647226768     -0.14893285775026     -0.20314064568503
  O   9.86382253389249      0.08374870879278     -1.61341573889128
  O   10.88817163654715     -0.91469203215075      0.43758219162740
  C   8.27208558961460     -0.83897554292688      0.22746847661190
  H   5.56310378504571     -2.18825440933833      0.22463113049480
  H   3.09254593756904     -2.08188117036703      0.09641486411181
  H   6.05775016983247      2.89485119522671     -0.87445503676817
  H   5.98068728505100      2.98683683024103      0.87553184616929
  H   8.78867206423434      3.09236568503365      0.75226961005016
  H   8.99014923689894      2.56030595013293     -0.90960083656334
  H   9.98517292360175      1.23759311905463      1.51922003251192
  H   8.36724561220271     -1.29154000166081      1.21625919614481
  H   8.08028068955726     -1.63026023781050     -0.50047783930497
