22
Coordinates from ORCA-job 19862optt
  Br  1.24125912679698      0.03393138793428     -0.44370598438507
  C   3.09618558530750      0.00183093489575     -0.10727876268974
  C   3.79364499504106      1.16124781589998      0.20471261872576
  Br  2.98016053734481      2.86394904852750      0.24362691717669
  C   5.14670861208242      1.06712838926061      0.50029806011492
  C   5.82504582387784     -0.13540948769253      0.44924065859177
  C   7.27089569962760      0.26145388378126      0.69199806842719
  O   7.72110138619040      0.89383737491774     -0.50577978329275
  C   7.08447401648515      2.17681627846273     -0.49710463634039
  C   6.22552243370698      2.08914198056106      0.78803074944803
  O   7.12624355003453      1.32431099272457      1.60015390187974
  C   5.15164521958101     -1.28948811422788      0.09904547497683
  C   3.76500878203681     -1.23227119843667     -0.16819847937868
  C   3.24352883129830     -2.52957516753318     -0.49388665220415
  C   4.19629068012988     -3.48589124439766     -0.47747637047381
  S   5.76527035138928     -2.89574446350218     -0.06625286293647
  H   7.98863085037747     -0.47927017662759      1.02667100848938
  H   6.49246946037934      2.31366984762214     -1.40109562783904
  H   7.84323755522024      2.95396299575811     -0.40912474879324
  H   5.94085108234683      3.02196112635352      1.26015951153806
  H   2.20767644413543     -2.71585728125751     -0.73209699861333
  H   4.06914897661008     -4.53473492302403     -0.69393606242167
