23
Coordinates from ORCA-job 19869optt
  Br  1.27413753582282     -0.16410720891214      1.47203370424850
  C   3.01690824694611     -0.06840513932637      0.75541033782527
  C   3.71298382639930     -1.20835352261149      0.40310987431130
  Br  3.04081953683557     -2.95790275241540      0.58371199622397
  C   5.00134941231366     -1.05090004522658     -0.10434761487177
  C   5.58424463748436      0.22781790561417     -0.30020121253956
  C   4.85159471371124      1.36100807272940      0.06734664377255
  C   3.58938380937703      1.20437671960947      0.59313420474266
  C   6.85966985016356     -0.03220196016735     -0.88657282125722
  C   6.99462380537930     -1.38235497351525     -0.98433207472123
  N   5.89666620735430     -2.02010829366302     -0.50004774684973
  C   8.45650459959984     -1.63700508369444     -1.28197904735693
  O   8.75254664215748     -0.47113287950365     -2.06176194147258
  C   8.26409468248039      0.46839560730397     -1.12865113694158
  O   9.04812505046276      0.13631245735824      0.05935562094195
  C   9.16104441734595     -1.22086664867764      0.01475654545589
  N   9.70465365007995     -1.97885711768249      0.84733986536411
  H   5.26588509198216      2.35222005669022     -0.05804372694987
  H   3.00906425284067      2.06732756080440      0.88728032372191
  H   5.71452710204113     -3.01000775525964     -0.47294448030163
  H   8.79706590970889     -2.55717325679498     -1.73831560024044
  H   8.47207363302694      1.49024168048283     -1.41766231487661
  H   10.08603338648650     -1.45532342314224      1.63438060177105
