25
Coordinates from ORCA-job 19867optt
  Br  0.94810359085308     -0.15998573985954     -0.07668340269903
  C   2.83192842200324     -0.13195332780412     -0.00326226714119
  C   3.56824704120242     -1.30799769819160     -0.15672844030575
  Br  2.78791739246661     -2.99539943644833     -0.44259527395397
  C   4.94945479065565     -1.21523714986194     -0.10135389953716
  C   5.58306797245841      0.00731025431864      0.10978877733770
  C   4.84919509192591      1.16022732437935      0.25900565817383
  C   3.46027177878563      1.08917158208454      0.20286321689198
  C   7.06959546522378     -0.21226739907894      0.10600651618714
  C   7.84583921001400      0.26825536433264      1.33037382070162
  C   9.20145505226174      0.63979639438084      0.75158592761744
  O   10.21016538921537      0.84703079532697      1.35726841547545
  C   9.03031614177628      0.70081141786592     -0.76029921218721
  O   7.65396044326335      0.48852638079992     -0.99678443473949
  C   7.17493273727423     -1.74642712451316     -0.09344968297109
  N   8.18788643339417     -2.49957223591168     -0.12649889145557
  N   5.88587609021924     -2.22127064027463     -0.23484977390162
  H   5.33825999702575      2.11530744961436      0.40649586175135
  H   2.85771284513198      1.97857461765892      0.31339899216497
  H   7.93837292544759     -0.46075362409874      2.13176506072753
  H   7.39241916755385      1.17805709352297      1.73207126349141
  H   9.65244757326813     -0.06344552734201     -1.23832910301527
  H   9.31960383703018      1.67785771184520     -1.14723619873008
  H   9.05538381784989     -1.99134933087308      0.01942327051459
  H   5.67258679369942     -3.19526715187250     -0.37897620039759
