23
Coordinates from ORCA-job 19877optt
  Br  0.99366813100922      0.16149879579646      0.27959254356240
  C   2.86768026932371      0.07232385102724      0.13848864787761
  C   3.53099294537936     -1.14984092648585      0.20372242211882
  Br  2.58237790339028     -2.76825387960930      0.44695368963405
  C   4.92793111456427     -1.21794653592286      0.10199993920347
  C   5.64097981713001     -0.01134216528382     -0.04827447889215
  C   4.97461358605590      1.19357971792333     -0.11681963106058
  C   3.58424843722408      1.26305765580720     -0.03465538127717
  C   2.93631408349451      2.53141752407486     -0.12494766662928
  C   2.41644673534328      3.60876061332740     -0.20831323114384
  C   7.09537137351307     -0.10971209121551     -0.07855528098804
  C   7.70940182973960     -1.32136086485754     -0.15788291892126
  C   6.95297843408757     -2.60194459145332     -0.29920580105929
  N   5.60876758696003     -2.40433841788324      0.22202269632067
  S   9.40363892695603     -1.11050410155898     -0.16496017221901
  C   9.16185665229673      0.59480281706133     -0.05404466300186
  N   7.93060950628579      0.97751954421673     -0.01760334224074
  H   5.54811137241555      2.10389191347245     -0.22620286059561
  H   1.94441649848342      4.55877012804922     -0.28391097968225
  H   7.42632921493386     -3.40418922261624      0.26857152642223
  H   6.93788200076530     -2.91177892992526     -1.35373323127380
  H   5.03435685368549     -3.23120094769410      0.26020442154024
  H   10.00702672696285      1.26679011374982     -0.01444624769463
