22
Coordinates from ORCA-job 19874optt
  Br  1.04991686945694     -0.41174221361192      0.00567792654475
  C   2.92958110072431     -0.30493241157962      0.00874672782497
  C   3.71923803864881     -1.45520512753175      0.01263937440848
  Br  3.00170461131596     -3.19519840495502      0.01557873023235
  C   5.09359309316247     -1.31001086109799      0.01408878778712
  C   5.67016145925357     -0.03742443560647      0.01164465334367
  C   4.89238201023389      1.11029054844434      0.00810222839651
  C   3.51581030391311      0.96066089619240      0.00679420787090
  C   7.11239373118512     -0.22076472477062      0.01317395915987
  C   8.22644285793429      0.54274138691372      0.01195860504656
  S   9.66242485799004     -0.48296846118964      0.01532303271863
  C   8.67048085377183     -1.97174693738550      0.01859884186362
  N   9.00934592591843     -3.18885008558827      0.02200966188229
  N   7.35539787987420     -1.56693520002021      0.01668691958466
  C   6.15198964959938     -2.38205659217102      0.01791274054361
  C   8.26262697690212      1.95093959981103      0.00838811207134
  N   8.27598767807490      3.10108253486404      0.00507715812568
  H   5.34344992304144      2.09400115438732      0.00622241392110
  H   2.87453259415044      1.83091069808023      0.00418233230851
  H   10.01316253185336     -3.32898028656258      0.02299826210406
  H   6.11097171303488     -3.02104065948858      0.90321278635009
  H   6.11240533996048     -3.02577041713389     -0.86401746208878
