26
Coordinates from ORCA-job 19882optt
  Br  1.16748407836851      0.01484646989548     -0.35944588246079
  C   3.04906673587136      0.02803556652305     -0.21097404209852
  C   3.76770455261616      1.21945685067802     -0.25770010903897
  Br  2.87503146027550      2.86856707038497     -0.49002052209543
  C   5.16180969998605      1.22751101439099     -0.14927426263295
  C   5.82151902999041      0.00644329242989     -0.04302771349461
  C   5.10199395169045     -1.17902759499295      0.00966874625446
  C   3.72000048943480     -1.18666714219212     -0.05841715144318
  C   2.98686288594440     -2.50649416761804      0.02693177602799
  C   2.47824424605028     -2.95471508619499     -1.27208459012551
  N   2.09689966712383     -3.31835730986713     -2.28914085562049
  C   7.33218829244595     -0.04429970004379      0.00619682347206
  O   7.95356318826213      1.16726838940183     -0.32676088464131
  C   7.36471166639586      2.26115674388849      0.35391851262436
  C   5.95729570354198      2.50669332988459     -0.15141700315662
  C   7.86377850171034     -0.53668814574623      1.35911837178636
  O   7.43155766037099     -1.47993660208430      1.95161955520916
  H   5.63179135129060     -2.11809140373275      0.11008252788000
  H   2.14283219928947     -2.43732569515472      0.71454495055396
  H   3.66445285749250     -3.27163816438369      0.40524780216852
  H   7.68182488591750     -0.77777526694060     -0.72791307629607
  H   8.00714504567205      3.12071189971499      0.17554330369284
  H   7.34752196912953      2.06271859772048      1.43470826909368
  H   5.98860786753422      2.91603100510548     -1.16452519131879
  H   5.46709861781603      3.25214373982393      0.47637980538299
  H   8.73501339577902      0.04243230910912      1.72474084027685
