23
Coordinates from ORCA-job 19885optt
  Br  0.96919467371354     -0.17179289677666      0.10877440363986
  C   2.85215844606660     -0.18085635806464      0.05078496145530
  C   3.56375531657003     -1.36242089912986     -0.02465436397304
  Br  2.76440130825119     -3.06165001504065     -0.08829100817323
  C   4.95788491337210     -1.28838068414373     -0.05311997715967
  C   5.61548099752425     -0.05757069125138     -0.00616785921419
  C   4.88333594322802      1.12987933261897      0.06418601605428
  C   3.51022489011102      1.06009273623798      0.09064431633418
  C   7.04522150514069     -0.28397014353165     -0.04174777116811
  N   7.91504121660538      0.77804648364084      0.01058500695313
  C   9.29252103003674      0.70371067376081      0.01982592970163
  N   10.05826071485120     -0.29395322824719     -0.05999696363471
  N   9.90948225950579      1.97254753156255      0.14508787052106
  C   9.34931658433629      3.20155983247202      0.26366020763732
  O   8.16133623290951      3.45146412811968      0.26258634824109
  N   7.42048534566286     -1.52304641043869     -0.11607022428409
  S   6.11732077986865     -2.55699174235911     -0.14288870358005
  H   5.37591221200848      2.09448002011114      0.09914287785936
  H   2.91463055854861      1.96000210562992      0.14242788781582
  H   7.52892744666908      1.71419376219217      0.08526084261768
  H   9.53664901595118     -1.16115116877056     -0.14413406139125
  H   10.91646271279798      1.90184259093420      0.15932045048045
  H   10.10599589627075      3.99096504047382      0.36878381326719
