24
Coordinates from ORCA-job 19881optt
  Br  1.18415361762297     -0.14965027597832     -0.02798974216834
  C   3.06887418158922     -0.07720818952900      0.02556973227467
  C   3.82278465165306     -1.24596096310684      0.09575734231451
  Br  3.00288113223471     -2.93534767016813      0.15655331081379
  C   5.22604563134931     -1.18825967270914      0.12089263952437
  C   5.83466704207240      0.06732471866000      0.07903386386308
  C   5.07518536644739      1.22215917555789      0.01719721902665
  C   3.69060171907275      1.17328613755055     -0.00974151040724
  C   2.90795208134071      2.46487874051207     -0.07828581769486
  C   2.33305003668798      2.69444718040715     -1.40693295384836
  N   1.90514249079594      2.87824694312303     -2.45344143972570
  C   7.34527674068592      0.18047566309883      0.15163607733725
  N   7.93864409220589     -1.12810944518247     -0.01280007115912
  C   7.22286652724474     -2.27809450303769      0.06552666223671
  N   5.95366448881403     -2.38008556679267      0.15999396340719
  C   7.70855533766160      0.78411236147530      1.50777941168885
  O   7.92597834016436      1.94906527628019      1.66476983002888
  H   5.57592719760007      2.18440585837686     -0.00031184279213
  H   3.56646579014743      3.30232649926903      0.15247492687250
  H   2.09464132298805      2.46808552488844      0.64863667633791
  H   7.70576874627779      0.87130332208238     -0.61469074047023
  H   8.93609642834313     -1.19340709595862     -0.12364980199446
  H   7.82076345036932     -3.18464767246645      0.03384377181182
  H   7.73101358663113      0.06065365364757      2.34717849272228
