20
Coordinates from ORCA-job 19898optt
  Br  0.77441443400732      1.34449900563891      0.42211397659554
  C   2.62963299553727      1.24350953732582      0.12385000392506
  C   3.19386349514285      1.47251693947554     -1.10947200949649
  Br  2.16150462986982      1.86283272915084     -2.62899850814599
  C   4.61385812405430      1.61849493835175     -1.18307451280768
  C   5.36163721384754      0.93421951267266     -0.25100897616579
  C   4.77632445901628      0.69032949507791      1.00772402537504
  C   3.50456408749391      1.18206839395667      1.24160508415062
  N   3.56061633442572      2.19144602731809      2.25357165912021
  C   3.18629073820832      3.31812017024972      1.83679653580475
  O   3.84552532889053      4.50944902434823      2.19279790773669
  C   4.54945569509074      4.79447388666116      1.03573415645349
  N   4.14944750853907      5.61992042587521      0.16477180224605
  S   4.90897860899603      5.50136552088915     -1.34912095688046
  C   5.34652438978337      3.77023512479816     -1.08161437631013
  S   5.86062560113447      3.67124194407348      0.65089194167312
  N   5.00025687959207      2.82372916577853     -1.83613200931149
  H   6.44036320586267      0.90252379248454     -0.33427413242150
  H   5.43844463770376      0.56043204637726      1.85364944730163
  H   2.50267163280391      3.50659231949637      1.00818894115733
