23
Coordinates from ORCA-job 19895optt
  Br  1.01938993676828     -0.00474258581015      0.22304530875690
  C   2.89847382716539     -0.08226712070633      0.12386158464392
  C   3.58946035522490     -1.26529098308731      0.08794022685476
  Br  2.68541026883049     -2.91977660390453      0.12801779678980
  C   5.01335805688922     -1.25729218557631      0.02495541712867
  C   5.69189933693016     -0.00555043366491      0.01299848514701
  C   4.94327676663882      1.19213621142677      0.04305825531475
  C   3.58448518980152      1.15308474580320      0.09465811268928
  N   7.04893649664040      0.10542974391062     -0.01357143957485
  C   7.73303079030528     -0.99758693720423     -0.02955491844710
  C   9.24830927271455     -1.05845590771774     -0.03251323475681
  N   9.62252396306903     -2.43254083430100      0.33653920869186
  S   8.43154250166362     -3.48531023034662     -0.15146543507986
  O   8.62009644467946     -3.79477746175332     -1.53103992262150
  O   8.30050760765961     -4.52280064720917      0.82106223805093
  C   7.14689318034801     -2.27728059450175     -0.04733848610868
  C   5.79878986586181     -2.43485516118626     -0.02428479215298
  H   5.48547086635396      2.12743244081632      0.02606633651826
  H   3.00367750065478      2.06453262070641      0.11644119856084
  H   9.67549960823004     -0.35122874016184      0.67452019842882
  H   9.63023273655253     -0.82771504058743     -1.02809845340097
  H   9.76710777925460     -2.55198960877374      1.33349604522734
  H   5.33762764776347     -3.41315468617067     -0.03579373066039
