23
Coordinates from ORCA-job 19891optt
  Br  1.10631153953340      0.12279538019560     -0.01903834560488
  C   2.98730844301504     -0.00557035936185     -0.14392452351570
  C   3.77260947412056      1.15986153923321     -0.02389333575821
  Br  2.97547829614843      2.85162953793722      0.24689412363534
  C   5.14496175473690      1.08848881511058     -0.09531663467719
  C   5.76503865829630     -0.18300616437342     -0.33492359908065
  C   4.99402004917302     -1.30525772515813     -0.44869604757006
  C   3.59726185844456     -1.23369009084047     -0.34444974088346
  C   2.84298187408513     -2.51604389928704     -0.48794854701833
  O   3.39503244931880     -3.55609618951429     -0.72017934524737
  C   7.29743207602869     -0.27629344180525     -0.66673999950076
  O   7.89341535928657     -1.27124276323757     -0.89190030827651
  C   7.59867907746189      1.23828909322905     -0.74100582205957
  C   7.92543127021685      2.69264092083651     -1.11654750872916
  O   6.61528718126044      3.20031063994031     -0.67949323134687
  C   6.10537413213214      2.27082858775582      0.30719967745019
  O   7.22421127410484      1.53504286679506      0.62696158926790
  H   5.44923743885188     -2.26931785197130     -0.64393988434551
  H   1.75162465669996     -2.46460170022931     -0.37034063680667
  H   6.72588589770051      1.31067237005079     -1.40577501809423
  H   8.01517699491628      2.88205161509845     -2.18146148964057
  H   8.72174478869088      3.15111829916464     -0.53749007576505
  H   5.69849545577684      2.84439052043140      1.13700870356734
