23
Coordinates from ORCA-job 19896optt
  Br  0.96577376688015      0.77256754388925      1.11744370600232
  C   2.73941436281399      0.39151781433994      0.60747913357742
  C   3.25208964990374     -0.88495144569351      0.59030757355651
  Br  2.13755639310258     -2.32014302301338      1.08357888785819
  C   4.60842317649971     -1.10255533162977      0.19175209508747
  C   5.37667605322448      0.03465755505061     -0.18836742696353
  C   4.81130901726453      1.32865497328702     -0.14875087888483
  C   3.52360280149764      1.50619478596554      0.24154313771680
  N   6.66310189076572     -0.04048062751048     -0.60317543200173
  C   7.24003199781835     -1.20541826108979     -0.66693639664585
  C   6.60462266224441     -2.41377324849146     -0.31056094075826
  C   7.33574954225184     -3.73743793585836     -0.38863082007422
  C   8.67626469726460     -3.65887864673866     -0.95869075860433
  C   9.77560897075326     -3.60353286207701     -1.42794772644051
  C   5.29413428635164     -2.35434276140933      0.12603778671562
  C   4.74996927967541     -3.63219107825282      0.50220744200849
  N   4.51520151878191     -4.72657845272100      0.75714950063156
  H   5.44078424763508      2.15713561661150     -0.44189977569353
  H   3.07808624211276      2.48992221899339      0.27712138627726
  H   8.26763946874532     -1.23337368766627     -1.01013149659811
  H   6.73815894109513     -4.44239935285411     -0.97282230400534
  H   7.39472480472699     -4.17273746202907      0.61342240696008
  H   10.75307622859069     -3.55985633110222     -1.84612909972150
