22
Coordinates from ORCA-job 19897optt
  Br  1.14092132615790      0.19782378398772      0.12312488310433
  C   3.02464634520463      0.12171114170833      0.07624600214857
  C   3.76656760407572      1.27317207708527      0.08516617151665
  Br  2.97442330926539      2.97205888446037      0.12948460826720
  C   5.18889756914744      1.20266531211054      0.05392354254369
  C   5.79676705087959     -0.07614965371892      0.03639678000230
  C   5.01819796040392     -1.24594706700128      0.04313808283806
  C   3.64658456746355     -1.17322782178280      0.03663449277360
  N   2.85489382272613     -2.30396832095457      0.00181871825366
  C   3.27135097856165     -3.56612927506418     -0.39311261162027
  N   2.59897886806801     -4.63312206752550     -0.35160102968731
  N   7.14548517792056     -0.19719424795869      0.02854465476153
  C   7.83343252761126      0.91279391540041      0.02767420476411
  C   7.22571916720568      2.19573978847839      0.03517452978098
  N   5.93053997307274      2.32872830217181      0.05057245721488
  C   9.27549131043869      0.82744134092572      0.01885436878643
  N   10.42125166059857      0.81829052315582      0.01218489199830
  H   5.54355341033579     -2.18860045601690      0.07594126878090
  H   1.87141339098236     -2.18594858058349      0.19655270213449
  H   4.27795915568171     -3.59279591294944     -0.80088210331886
  H   1.67279288264804     -4.49840677206410      0.05556805364859
  H   7.83813194155063      3.09006510613548      0.03059533130817
