24
Coordinates from ORCA-job 19900optt
  Br  1.25797085636625      3.25408545704838     -0.00019370366018
  C   2.97065002025687      2.49369997040803      0.14110785955466
  C   3.75472487346280      2.21767516273381     -0.96590945715581
  Br  3.15219473659253      2.51813656213724     -2.72440472013202
  C   5.13135478970472      1.95985211388328     -0.74351057550430
  C   5.44231660120230      1.30530803712695      0.44662461958231
  C   4.63486669651167      1.54052648528768      1.56708765769724
  C   3.54911056232005      2.38187502783803      1.42127492416773
  O   3.36547179770593      3.42290248374540      2.34884420942238
  C   4.00557900794605      4.51130877914961      1.76710797984381
  C   3.52404472775322      5.73229844553144      1.36347903889149
  C   4.49875471589347      6.29108361614503      0.48337213724592
  C   5.54605344504996      5.40751555213945      0.38716761667830
  N   5.25631267937617      4.36158194119576      1.24423132185589
  N   6.44981459719521      5.14030556361423     -0.71242098734890
  C   5.80133537242848      4.01488729943973     -1.27167289667544
  N   6.19822536105999      2.80131060135116     -1.18338002124034
  H   6.45783518262567      0.96003795293821      0.59498943914829
  H   5.03176519637642      1.35065410967699      2.55685782041861
  H   2.55450073271918      6.13443813752885      1.60093737213135
  H   4.39494033019160      7.19605504655375     -0.09162058806518
  H   5.79194809579060      3.51011051178033      1.28070714471043
  H   7.40357496488392      4.94185971122500     -0.42713795570579
  H   4.77765465658690      4.29249143152162     -1.51753823586045
