24
Coordinates from ORCA-job 19904optt
  Br  0.99915561598744      0.00040503753474      0.05767329750881
  C   2.88328800034055      0.07663613648051      0.05192682908005
  C   3.55745784711771      1.29411736293544      0.06484453760883
  Br  2.68929576377709      2.96626807109923      0.06487590842013
  C   4.94224379890744      1.26208406830919      0.08298070350415
  C   5.65669079275569      0.05253654747867      0.06938953505294
  C   7.16030323972866      0.28232331219947      0.07367853198388
  C   7.20353109216035      1.77826846952027      0.09172058906133
  C   5.94384537674161      2.30952944717674      0.09585311057150
  N   6.14613952052113      3.63540877399435      0.11038714102713
  N   7.46305546133293      3.90031768610108      0.11680234951184
  N   8.10954191325086      2.77554478873498      0.10615558649070
  C   4.97332385699613     -1.15533650857338      0.04271422023151
  N   5.68512867089347     -2.35133793740564      0.02928152342829
  C   5.20793070723593     -3.57266189139605     -0.40611159440184
  N   5.80213226354410     -4.68694451848170     -0.37548444873890
  C   3.57469156294232     -1.12649860623886      0.05331303609015
  H   7.63454620215560     -0.14502088491570     -0.81387766561194
  H   7.64078590293148     -0.15613882095405      0.95314835431983
  H   5.48183833610042      4.39284972177339      0.11582952076592
  H   6.66144773890283     -2.30517648137380      0.27935397089715
  H   4.21148458436945     -3.51895534238196     -0.83791724111041
  H   6.72591475859521     -4.62692194779177      0.05435471677975
  H   3.00422699271154     -2.04229648382516      0.08910748752921
