26
Coordinates from ORCA-job 19901optt
  Br  1.25363241001011     -0.28789085537078     -0.16471028771653
  C   3.12210280344712     -0.13516656037064     -0.04410454797169
  C   3.79554681406979      1.07274944935403     -0.19301526707399
  Br  2.81704416900757      2.65988544573958     -0.50608126902397
  C   5.19225561892243      1.14957100295322     -0.12337150372619
  C   5.90416332398261     -0.02893636420019      0.08835812704866
  C   5.23995081181715     -1.23344916773414      0.26612903835865
  C   3.86757884316326     -1.28454173230133      0.20125089422866
  O   3.23037889703671     -2.49144258091327      0.42825644469646
  C   2.86997611293795     -3.20940315172235     -0.66068801053745
  O   3.09886605547217     -2.91148413408640     -1.78689428722489
  C   7.43281027836265     -0.02769162589705      0.10331872331903
  N   8.03013871416898      1.17216567154989     -0.46238863443549
  C   7.39181600413098      2.36807698361813      0.07087382571925
  C   5.91236735010657      2.46599650575700     -0.28645930549790
  C   7.91497332104944     -0.24644482652894      1.47662335943907
  C   8.28417981942284     -0.43940033813145      2.59874743715725
  H   5.79020558501407     -2.14739564967161      0.45481063960172
  H   2.34183317188821     -4.10946808384411     -0.32996077036113
  H   7.76741642327715     -0.87706439341135     -0.49810931279867
  H   7.93615988011726      1.14360504931871     -1.47198825762665
  H   7.92528706891481      3.24677562979640     -0.28996404109457
  H   7.51320669337824      2.33812087166423      1.15629160064435
  H   5.79318417119606      2.80380315112147     -1.32143363746190
  H   5.42847585516991      3.22284501585586      0.33325512984082
  H   8.61944980393588     -0.60781531254486      3.59425391249709
