22
Coordinates from ORCA-job 19902optt
  Br  1.42669360142056     -0.97798557424638     -0.36470992347600
  C   3.25494781344264     -0.55784436940878     -0.24510129769023
  C   3.76718248758023      0.72627944557657     -0.26185788835653
  Br  2.63994648857067      2.22415530376901     -0.43184652801389
  C   5.15565603420509      0.94734154580164     -0.15616132955494
  C   6.05662851136756     -0.11095261775938     -0.03538679129269
  C   7.48803014401271      0.37138833880876      0.05851178337277
  C   7.25971801621590      1.84765106173036     -0.02253460013492
  C   5.93157480644054      2.18637729287824     -0.14527275721537
  C   5.92332376181888      3.59590496439093     -0.20388063955820
  N   7.15748501021599      4.06828683727659     -0.12322512313407
  N   7.95770392280895      2.99104710709322     -0.01379338805192
  C   5.54856283853024     -1.40525771543291     -0.02361461223381
  C   4.16887326983845     -1.60438664451509     -0.12407279818948
  N   4.04405995904840     -2.95350002056477     -0.07922682019866
  N   5.24563813533061     -3.53641922226876      0.03783055681452
  N   6.15253225135358     -2.63770468870394      0.07313137996154
  H   8.09256964332198     -0.02068602962596     -0.76225208126194
  H   7.95531071325346      0.05190570394239      0.99231027516848
  H   5.09748744783641      4.28063056634045     -0.29778456032531
  H   8.95054041231233      3.13079205705772      0.06044380191802
  H   3.21053473107479     -3.51702334213990     -0.12550665854737
