22
Coordinates from ORCA-job 19903optt
  Br  0.92772113727012      0.16281553096391      0.35399612200509
  C   2.81659711026496      0.15999650188871      0.24329630773876
  C   3.52633614366604      1.35706442341709      0.12992668083009
  Br  2.72006904635260      3.05565469718625      0.06754882257685
  C   4.90631270842943      1.26257971825716      0.07209710166967
  C   5.53611503674867      0.00103394267221      0.11953204657415
  C   7.04389394473094      0.12470465581433      0.05087988394292
  C   7.18851942780954      1.61431790776288     -0.02378292394786
  C   5.96661087948708      2.22965992559158     -0.02133665985061
  N   6.22059816928833      3.56862785559304     -0.09881938571167
  C   7.57906883282401      3.68329522531400     -0.14362655210410
  N   8.19536355060110      2.52059848515142     -0.10090372249549
  C   4.71264298130021     -1.09327285937149      0.22690819226118
  O   5.22071692912147     -2.37460325875042      0.35500649170862
  C   5.90764571105295     -2.90386380571282     -0.67858775660677
  O   6.15103872963507     -2.35663685811922     -1.70559979958897
  N   3.39500380185472     -1.01814507739694      0.28741774549711
  H   7.43757107804673     -0.38118451113201     -0.83283669582771
  H   7.52484291257881     -0.31153588274414      0.92944257820159
  H   5.54593005617388      4.31536185838373     -0.11776240773780
  H   8.06439510187353      4.64378173157345     -0.20975256374171
  H   6.20400671088967     -3.92425020634273     -0.41504350539333
