27
Coordinates from ORCA-job 19918optt
  Br  1.07611745232410     -0.07682358033482      1.19075364387564
  C   2.86111707231831      0.00586602837294      0.60074673517147
  C   3.60017573612056     -1.11082723790526      0.24169644849322
  Br  2.84144177631920     -2.83871006539432      0.26925340281232
  C   4.93297072924323     -0.97476261856924     -0.16395907494508
  C   5.53116044606904      0.27885305276206     -0.24783452382849
  C   6.96653746026831      0.17119928355325     -0.73365722931894
  C   7.23833961618966     -1.27837861153524     -0.33731644209057
  N   8.20735383435732     -2.14108888585495     -0.97586535483765
  C   7.72398781145000     -3.52662058460968     -0.70245668586213
  C   6.24628338525877     -3.39869915373799     -0.22249166291469
  C   5.92946707322073     -1.98149970246976     -0.67109809731609
  C   4.79739686808389      1.41296655402779      0.09619088743540
  C   3.46907735472494      1.25940294325995      0.52671683597852
  S   2.82838406493960      2.81419587807081      0.89985303503432
  N   4.22210219656584      3.62247041958871      0.50398133193383
  C   5.14680486731883      2.80536367550754      0.11072234977218
  H   7.62958210553256      0.90646492071239     -0.27829519986573
  H   7.01393317856984      0.28267998623053     -1.82190377123239
  H   7.33313784403971     -1.28977334787920      0.76141469898894
  H   9.14668356842538     -2.00511099217773     -0.62797293251011
  H   8.33149976975658     -4.02686145594050      0.05460801400049
  H   7.78521251833632     -4.11436157237858     -1.61881269741218
  H   6.17532657188071     -3.48350069622018      0.86284048167307
  H   5.60906392471404     -4.16039903767888     -0.66494135718735
  H   5.84960045572443     -1.99030692996765     -1.76723103967501
  H   6.11224231824805      3.19826173056802     -0.18494179617301
