25
Coordinates from ORCA-job 19915optt
  Br  1.08228963576438      0.14117295045867      0.23630909857406
  C   2.93762720330570     -0.01139093689932      0.02077530976295
  C   3.60440024826045     -1.16751049355907     -0.21473429791396
  Br  2.66654137760021     -2.79478489840059     -0.36753210004320
  C   5.03565866698043     -1.11679451386591     -0.34733628001700
  C   5.70257587219227      0.06698525513280     -0.24873906518757
  C   7.20221275342365      0.16323704745462     -0.34856496576655
  C   7.88099216337791     -0.78428627359196      0.59179120876177
  C   7.53774631072722     -2.04154797321653      1.03106543093258
  O   6.46397726333834     -2.79686870720957      0.65334016297190
  C   5.84898559127760     -2.37950463029122     -0.54829957486838
  C   8.50389445263559     -2.47840435177012      1.96993787694061
  C   9.42468702515487     -1.46943396135916      2.07615338082334
  N   9.04642985992336     -0.45960809218352      1.24338051281240
  C   4.99098663387413      1.31289789358014     -0.00412061147166
  O   5.49000784988199      2.41813118898206      0.09307064828127
  N   3.61489653377056      1.16178393871889      0.12075102295580
  H   7.47624475784036      1.18967960926116     -0.10189361560484
  H   7.51646557158185     -0.00080081017416     -1.38594528119359
  H   5.22281177285571     -3.20524253981753     -0.86866394462305
  H   6.61482879674140     -2.20115464817238     -1.30981402837447
  H   8.51018980575344     -3.42094025314695      2.48975523048856
  H   10.31616965079464     -1.39661804702291      2.67435644686188
  H   9.52289056183376      0.41916036407050      1.14368006463710
  H   3.10348964111007      2.01584288302208      0.29827737026005
