25
Coordinates from ORCA-job 19919optt
  Br  1.22740478887875      0.85513643809579     -1.07239856681154
  C   2.98565474743389      0.35030634983342     -0.64193765586307
  C   3.92388663707362      1.24462807492598     -0.13275873969293
  Br  3.53099394457990      3.06260017843770      0.16356307585378
  C   5.18825109386094      0.76107330340817      0.14490099826980
  C   5.46410087085067     -0.57311558955801     -0.12850853808804
  C   6.90165967380017     -0.90271326231336      0.16208692721140
  C   7.38280959935047      0.29763301085580      1.00344728705629
  N   7.16874458012869      0.10824886078745      2.42238899180311
  C   6.62767171634848      1.26472916338978      3.00355535591200
  N   6.43960809095788      1.54407741287175      4.22208824281370
  N   6.29469774506103      2.11705355305793      1.96649477297807
  C   6.40832407132431      1.47521797095107      0.68440962849904
  C   8.82967544714162      0.62569569601110      0.68582076235923
  O   9.71304604532746      0.53520427647807      1.48682579577756
  N   4.58757926462879     -1.43659621999059     -0.61399221538186
  C   3.36720011313924     -0.97340151762584     -0.85499069161753
  H   7.45724332149789     -0.98801163561803     -0.77693749269406
  H   7.01536400290143     -1.83856916437541      0.70653685385109
  H   7.96056418864739     -0.27964160034251      2.91910358557609
  H   6.75767979151294      0.79700832822225      4.83065301605102
  H   5.60142116001651      2.82651131494512      2.14161961439862
  H   6.80764996228351      2.16365991723223     -0.06700319141332
  H   9.02897673183571      0.92507702198718     -0.36220015270226
  H   2.63979241141861     -1.67481188166704     -1.24576766414622
