23
Coordinates from ORCA-job 19921optt
  Br  1.17702916804145     -0.14451970952446     -0.49209773825197
  C   3.03603452164726     -0.14099096936796     -0.32343462448448
  C   3.82999092471122     -1.22794752093135     -0.43920445682684
  Br  3.14195289987511     -2.93244325101353     -0.82994871190493
  C   5.23976226198298     -1.04818764876018     -0.28679909241996
  C   5.75763923728965      0.21116205357294     -0.07115486232021
  C   7.29317166514197      0.50081653299188     -0.10978010421614
  C   7.68851270339998     -0.90472526836707     -0.56554328673655
  O   7.22715043314605     -1.67775453060649      0.57622148952080
  C   6.23167781621026     -2.29476440671023     -0.12604126999621
  O   6.95382444273839     -2.86311038337126     -1.24903246203822
  C   8.25163009939925     -2.14101629718714     -1.31482476883394
  C   8.62124037794337     -1.93309981220450     -2.70301834262341
  C   8.93021244767422     -1.74684235846736     -3.84293964783603
  C   4.88396585348026      1.35117734086930      0.05901088965414
  O   5.19634438969623      2.48687042099088      0.25484013870107
  O   3.51694695401617      1.07060303584446     -0.07343004187014
  H   7.68101760534084      0.80007094093490      0.86206558855251
  H   7.47673754643439      1.28777967556856     -0.84056606542374
  H   6.93397468679260     -0.87358617036153     -1.35339583829329
  H   5.73550023502873     -3.10966489678529      0.39881225794408
  H   9.00110517422545     -2.70385740093623     -0.76351643043914
  H   9.20457855578406     -1.58496937617834     -4.85822261985741
