21
Coordinates from ORCA-job 19929optt
  Br  1.11685245932138     -0.33476011478753      0.66532443322218
  C   2.94616017635238     -0.07083570371230      0.37152399824054
  C   3.57313255853776      1.12576270390911      0.53455248281970
  Br  2.68367526544655      2.65051021223989      1.16626082040372
  C   4.93959008018171      1.21624844375541      0.19910968044344
  C   5.89355668334059      2.18635442136238      0.19841940114248
  C   7.11497228239483      1.59026437477465     -0.29301535962580
  C   6.93902810317148      0.27064221603085     -0.59386571054139
  C   5.56828966605196     -0.02519420992008     -0.30064245628858
  N   4.95757349521377     -1.15812057573534     -0.41753519884136
  N   3.65804193106859     -1.17165038037808     -0.08358406635511
  C   3.07913834233893     -2.44422982541871     -0.13595937867617
  N   2.82597072014296     -3.11288125339336     -1.18458092517922
  N   2.34116177407043     -4.28999789539098     -0.68844022322023
  C   2.28734675128573     -4.31302537080955      0.67538233051565
  O   1.91110898704593     -5.13885181678606      1.44139538386077
  O   2.80287756645049     -3.06996205687128      1.02721781481778
  H   5.76586308083364      3.21182665971794      0.50628266885967
  H   8.04430786785333      2.13076618298618     -0.40098340463916
  H   7.66217425095167     -0.43089565225226     -0.97434128102828
  H   2.05917795794586     -5.03297035932088     -1.30352100993064
