24
Coordinates from ORCA-job 19938optt
  Br  0.81444067014092     -0.15223899730657      0.20464511907500
  C   2.68083670772962     -0.04769748374436      0.01439274235972
  C   3.40226343753154      1.07019088746865      0.29154456283771
  Br  2.47129228085828      2.55817201580330      1.00804853187501
  C   4.84333086324226      1.22015041996873      0.15542262100747
  C   5.61798237322366      0.14194887816071     -0.11349266021815
  C   7.12962381208718      0.13751793279234     -0.08080273802739
  C   7.72140386747587      1.50809905494651     -0.03892485455583
  C   6.98190307222570      2.57423601880926      0.19872563566428
  C   7.37260583399714      4.01867041959001      0.06036865839588
  O   6.17406858337192      4.67944240279255     -0.33718616582751
  C   5.16335858844743      3.71535363714390     -0.58935298712616
  C   5.49197911398954      2.56489564222618      0.38440047060124
  S   5.02151001110421     -1.43243968284397     -0.48097627104465
  C   3.25599505545446     -1.31430310327831     -0.45102906419586
  O   2.62845099407866     -2.29030846233477     -0.76558253061366
  H   7.50637899133912     -0.39561103758489     -0.95839167239163
  H   7.44626183819022     -0.46071897997741      0.78194238705160
  H   8.77854711029561      1.60439210677926     -0.26071343517907
  H   8.15405591947460      4.15635214672971     -0.69072015218910
  H   7.71112436000725      4.45525250657792      1.00368779240262
  H   5.21768089423692      3.34613082684305     -1.62097623818056
  H   4.20430089536118      4.19530809022666     -0.42543985702690
  H   5.25460472613665      2.92020476021154      1.39341010530592
