29
Coordinates from ORCA-job 19936optt
  Br  2.66408024236539      0.10025764904124      2.43480191651684
  C   4.07783472852441      0.12639184569894      1.18451739520443
  C   4.83695964746710      1.26801520906650      0.94316849043210
  Br  4.52573738925156      2.86841492415633      1.88837279070988
  C   5.85837964032659      1.25051150448847     -0.01789993485148
  C   6.14413044379583      0.06276684294463     -0.70246983018578
  C   7.32084130953533     -0.03239860726697     -1.64317706556520
  C   7.31804356795245      0.90650611576917     -2.85139663243880
  C   7.57591365647292      2.37895707435662     -2.51758211209956
  C   6.49341181945726      2.97682877078412     -1.63019003179150
  N   6.55405090586453      2.45161195864768     -0.28544748822947
  C   7.81244042558352      2.71166125642646      0.38637529065303
  C   9.05444878765845      2.61777341670298     -0.49420789505722
  O   10.16489542298160      2.64024535688168     -0.00712804595503
  N   8.85369579093922      2.56511299972089     -1.84012501500751
  C   5.36991059269242     -1.06358821497019     -0.44715587636135
  C   4.34429842466215     -1.03779442793349      0.48045485724450
  H   7.37610143589158     -1.05938315321138     -2.00523338012452
  H   8.24042508073270      0.13344481086687     -1.07258870356481
  H   6.36713835518482      0.82764037225751     -3.38562631273945
  H   8.09846130046134      0.57233336532840     -3.53979906188623
  H   7.61149551736103      2.94425888743730     -3.45268125156577
  H   5.50586354819391      2.78142003120897     -2.04837398792897
  H   6.62982882209483      4.06170664125144     -1.57907889078299
  H   7.95012106353920      2.01756201864540      1.21451871650083
  H   7.81930187711969      3.72166590432418      0.81334868773255
  H   9.70543301575626      2.46342165658818     -2.37420888553432
  H   5.58470212857682     -1.98670297686496     -0.97124393489605
  H   3.75105505955697     -1.92064123234700      0.67305619157189
