26
Coordinates from ORCA-job 19937optt
  Br  1.06322513482666     -0.16555357493571      0.24167311225654
  C   2.91515990604835     -0.01380462476164      0.05171872315262
  C   3.56615527643581      1.11708033638952     -0.31718693394628
  Br  2.60052770385562      2.70259092616278     -0.63987693455989
  C   4.99786408523143      1.14532988509261     -0.45149185717236
  C   5.65571659325496      0.01046294178876     -0.13525055876260
  C   7.14456993244409     -0.11445177208010     -0.08990489733505
  C   7.72150988914043      0.60783067268378      1.13614151579224
  C   7.54955868222129      2.10218323511990      1.08880489747527
  C   8.18645030946245      3.00102277531002      1.90801292298754
  N   7.76123595802363      4.25588069817193      1.58235397580673
  C   6.85697360480954      4.18350221910623      0.56503551415671
  C   6.69982466419419      2.86275288728765      0.22764303937520
  C   5.80831079663014      2.35008877095303     -0.86783799509251
  O   5.02690128473091     -1.11396165365390      0.25016046103200
  C   3.66050362736646     -1.23648808847875      0.34482161533147
  O   3.20801961154842     -2.29542857826698      0.65958023412620
  H   7.57675989888396      0.30687645712025     -1.00023859626363
  H   7.39659925690916     -1.17312683428744     -0.05318754051975
  H   8.78267192787102      0.36260714996703      1.21095071998470
  H   7.24353941117205      0.19887144892027      2.03090519366692
  H   8.90644168132391      2.83987790829975      2.69314771898685
  H   8.06428629934764      5.10293422682031      2.02808612090035
  H   6.39347709882912      5.06598430103640      0.15672453197627
  H   6.40711444603532      2.07297321745357     -1.74114470741598
  H   5.14960291940332      3.14996506878070     -1.19564027593955
