24
Coordinates from ORCA-job 19935optt
  Br  1.00756732176482      0.08789395069770     -0.22952427807650
  C   2.87825328824946     -0.04070516404644     -0.08284797684039
  C   3.56735034277208     -1.20662831225727     -0.08359562241142
  Br  2.66024658623313     -2.85451165431548     -0.24443235771031
  C   4.98815990988923     -1.26651534680074      0.01839699800760
  C   5.84781727712714     -2.32891092754214      0.04407657086387
  C   7.18587892221521     -1.81618206521116      0.13765549014020
  C   7.18032011646089     -0.44889067967936      0.16998780251560
  C   8.36195184161978      0.45445310259883      0.17665806950569
  C   8.53130645438560      1.44231300655855     -1.02008347290618
  C   8.57112818591627      2.54274162358757      0.03767624047919
  N   8.78629555025604      3.78230535649210      0.11569043996101
  N   8.26483098736063      1.64479494520782      1.03535865528505
  C   5.79799969798107     -0.03856780574481      0.10792037318825
  C   5.26455292831798      1.20160076906609      0.13967072321220
  S   3.59581340721865      1.52668527363812      0.05057968830098
  H   5.57086520188260     -3.37017169884361      0.00374876510277
  H   8.07631695381392     -2.42978662064248      0.16871897280827
  H   9.26991315150104     -0.12734603527309      0.35106283864206
  H   7.66936181641543      1.48552597474623     -1.68343992451357
  H   9.44670262957864      1.33047328821832     -1.59596788630825
  H   8.96526966885355      4.17871117234532     -0.80230717749501
  H   8.46082586869584      1.73317580385883      2.02141821877658
  H   5.86927189149092      2.09554204334109      0.23957884947230
