25
Coordinates from ORCA-job 19947optt
  Br  0.93465591152114     -0.13937053217682      0.16229479380070
  C   2.82560501921434     -0.08478996968994      0.07749321269622
  C   3.56681323139381     -1.23353797621704      0.20773872256235
  Br  2.71774285925522     -2.90123077983379      0.46310378089358
  C   4.99126260656440     -1.19396695255374      0.15865528452508
  C   5.62418968007075      0.06119479371268     -0.03044146906554
  C   7.03751509552597      0.13634733555781     -0.07131592588383
  C   7.81148583046761     -0.98026531562296      0.06126367888977
  C   9.31981451641697     -0.90054195203973     -0.02067432216350
  C   9.99260827394645     -1.64175554404971      1.04461714528187
  C   10.53134979896381     -2.26201889784243      1.91548220885880
  C   7.17510592927352     -2.22885935502330      0.25020503049298
  C   5.81484642649229     -2.33764587703541      0.29617902172111
  C   4.83602493648365      1.21609736002925     -0.17307165196316
  C   3.46921985925194      1.16406421077652     -0.12624282407911
  C   2.73533818857398      2.45340281771062     -0.30256547679174
  O   3.30152583586605      3.48691146319136     -0.53861799804755
  H   7.49397293424415      1.10982454633320     -0.21238908376506
  H   9.63327447948121      0.14410284173618      0.01072992966159
  H   9.65128319084045     -1.29896896776293     -0.98447025665484
  H   11.01367899093949     -2.80322212904075      2.69399264995028
  H   7.78876205075040     -3.11348736322404      0.37073076933912
  H   5.35888022054398     -3.30536274330692      0.44257121279739
  H   5.30174402701973      2.18246609276225     -0.32735663728746
  H   1.64130010689859      2.41861289360962     -0.20691179576906
