24
Coordinates from ORCA-job 19942optt
  Br  0.95792398258358      0.00502651413743      0.34695165075597
  C   2.83500479969149     -0.00402196375132      0.17430370576944
  C   3.57679346958098      1.14022669056202      0.05074787532634
  Br  2.73384834929725      2.82741643804513      0.02743023190657
  C   4.99829869016062      1.06438938507482     -0.06304267832270
  C   5.62223180245038     -0.21282440672507     -0.06997866753443
  C   7.02387080840483     -0.29546564458386     -0.23212224468979
  C   7.78564214133565      0.83347082560376     -0.34930505410871
  C   7.17444802300501      2.09944880720119     -0.31343825252439
  C   5.81814983404586      2.21173364017773     -0.18265340943074
  C   4.81436094719328     -1.37648603760432      0.08416242533094
  N   5.42481057341749     -2.64433334329492      0.13623227222902
  C   5.06210758444977     -3.72774410764967     -0.63735651877089
  N   4.17164131594712     -3.84432166768827     -1.52620032181545
  C   5.88936172292439     -4.89498618469717     -0.33315022678636
  N   6.57441765865667     -5.77095816735775     -0.06132323811905
  C   3.45913228615367     -1.26727683904212      0.20794322829872
  H   7.49834337837886     -1.26566623147259     -0.28939754259572
  H   8.85682008598284      0.75309161734271     -0.47722882101640
  H   7.78030885578223      2.99193026917850     -0.39746238824554
  H   5.35743299149116      3.18810624988689     -0.16793327005241
  H   6.25770646292941     -2.74560552660276      0.69418843188310
  H   3.66604095569821     -2.97317414171116     -1.67821288542855
  H   2.85330328043920     -2.14997617502919      0.36084569794102
