24
Coordinates from ORCA-job 19948optt
  Br  1.15773639260612      0.34948657004774      0.29525610155692
  C   3.01985792996465      0.32169492483142      0.02076861091278
  C   3.72180450355232      1.42820280507988     -0.33760705522361
  Br  2.94330165337295      3.11282870465015     -0.60007498767458
  C   5.12488605465301      1.33299754664604     -0.53907701231821
  C   6.11225228138704      2.22447089190812     -0.90472082585827
  C   7.32653305405301      1.51060873792742     -0.94652576269703
  C   8.68439049450243      2.07365491530040     -1.26609529442262
  C   8.64152549273692      3.11534614856672     -2.29075853215737
  C   8.59279554333386      3.97319606570966     -3.12401381025940
  C   7.07563323743363      0.20058621379703     -0.61062338012708
  N   5.73174985229654      0.08567709555173     -0.35893452708618
  C   5.00585731457058     -1.01804001702516      0.00231349905750
  O   5.82409718704872     -2.10469508182987      0.12243909492264
  C   5.37821223205970     -3.36469192324813      0.34346544070631
  O   4.25019583008056     -3.70305204369617      0.48166966130997
  C   3.67045509201866     -0.93633403149664      0.20119689398698
  H   5.96549926557875      3.26633244477637     -1.13307325372575
  H   9.34844794995072      1.27192812625259     -1.59521957035025
  H   9.12981218097354      2.49656873826808     -0.36102392618596
  H   8.55014699046165      4.73336320923996     -3.86658823005894
  H   7.72838383735689     -0.65023710367774     -0.53762875136910
  H   6.25214103463589     -4.02329277208672      0.37076116111055
  H   3.10328459537171     -1.80360016549291      0.48509445595074
