23
Coordinates from ORCA-job 19943optt
  Br  1.12402521768937     -0.61750347207255     -0.27977826709929
  C   2.94351439785603     -0.24292731871711     -0.12391348213740
  C   3.50958318654722      0.97147795477195     -0.26248137689862
  Br  2.46497826861686      2.45849842864138     -0.73110226652840
  C   4.94831592231474      1.06758779506093     -0.11006495220820
  C   5.69074967763836     -0.05006621796573      0.05607600195431
  C   7.18912631647772     -0.11315737250323      0.08938048127671
  C   7.81671772362658      1.17876957267924     -0.40212166042694
  C   7.13508414257320      2.34647007431799      0.28273640399376
  C   5.64253170887850      2.43969185589977     -0.14426656209349
  C   5.00925261634274      3.37544693263809      0.80379321996692
  N   4.61577993999830      4.09992864169823      1.59797379820429
  C   5.58534455053165      2.98646860100190     -1.51269978128605
  N   5.62671469255539      3.37729826731936     -2.58781465100560
  C   5.03213412710107     -1.34491531663035      0.21751367120453
  O   5.58240447667920     -2.38165194413782      0.42571167538596
  O   3.65152961643694     -1.34108173567781      0.14635341943085
  H   7.49774195410252     -0.97027136345560     -0.51115639390726
  H   7.50996742774287     -0.34074250553268      1.11089616859946
  H   7.70944566143201      1.26808611009985     -1.48634168610746
  H   8.88322130020441      1.19148837005099     -0.18046330893654
  H   7.60569963126035      3.30165269541044      0.05565388722992
  H   7.15513744339389      2.21145194710272      1.36611566138852
