25
Coordinates from ORCA-job 19954optt
  Br  3.04783858384069      0.15928433811399     -2.05925772237605
  C   4.30914445500175      0.57487546516346     -0.74468640935030
  C   4.05997897908656      1.06387547034298      0.47802800275464
  Br  2.36517022777539      1.48165887478650      1.15176232711491
  C   5.29014680871433      1.33826905491748      1.26476204455984
  C   5.76920404553882      2.57852449833372      1.44595714075038
  C   7.20248373041778      2.83974072114139      1.41697082826722
  C   7.68693617815698      3.92790637912525      0.81190278169145
  C   9.01766798744150      3.99843644241316      0.16732588363327
  C   9.22737832787500      3.46919758675532     -1.04748010886053
  N   8.22404864013801      2.84421547351342     -1.79608037574205
  C   7.78671279756600      1.70647292134193     -1.44796125288013
  C   6.44874326949803      1.27247466903332     -1.85087098399176
  C   5.76407105342670      0.47784392315457     -1.02264627659648
  O   6.44485806620077     -0.24867940064900     -0.06178255222961
  C   6.21057935976620      0.17005117327503      1.23441135190308
  N   6.74305869588542     -0.37159107691584      2.22833984261104
  H   5.09606113024159      3.42097884855174      1.31295164588130
  H   7.86449528012788      2.00730379610284      1.62442806366618
  H   7.01418810726491      4.76285971244066      0.61967391325281
  H   9.80022608085062      4.60963534794370      0.60213734245217
  H   10.16158419924516      3.64868286111438     -1.56891709718014
  H   8.28947821905456      1.11071224065175     -0.68379167184673
  H   5.92299940158530      1.84856545666277     -2.60086858821210
  H   7.34294637529995     -1.14729477731455      1.94669187072757
