25
Coordinates from ORCA-job 19957optt
  Br  1.43964373668135     -0.65756034605258      1.83246233517928
  C   3.07210345423934     -0.34119194117484      0.93711177227999
  C   3.61560161800056      0.91950901912574      0.85495769433847
  Br  2.81387652167317      2.43072279134983      1.61578130053122
  C   4.84161644216222      1.07417242877843      0.15168179957795
  C   5.42586698143786     -0.08063137883634     -0.41261023297916
  C   6.63922723865075      0.06279771852544     -1.11642492134642
  C   7.20149920489512      1.29952327672651     -1.23085200153985
  C   6.53327463012109      2.39438836136232     -0.63075116950287
  C   7.07244574839094      3.79526161216749     -0.73031874090862
  O   8.31822653678218      3.80685662427686     -1.37826550273211
  C   8.82427559688571      5.10586319323822     -1.53068675518909
  C   10.15360188197944      5.02614094747358     -2.24307474768745
  O   10.80598983613586      5.99322862522272     -2.50719971060900
  N   5.41065415842422      2.29200203348890      0.03233309344632
  C   4.76209337508923     -1.31426850514470     -0.24277944715338
  N   3.63638093960289     -1.43531859957159      0.40282398993098
  H   7.10523594899586     -0.81163396442623     -1.55535986727992
  H   8.12881648291653      1.46674703902600     -1.75737239627853
  H   7.15268983625014      4.21236039690599      0.28049956533171
  H   6.34431889432620      4.40618814330855     -1.27882741379694
  H   8.97339708503464      5.59692587806109     -0.56048496153447
  H   8.14737046531584      5.73489263270860     -2.12309526154892
  H   10.48126487874778      4.00258802959300     -2.50625475165257
  H   5.19052850726101     -2.22056401613303     -0.66129366887661
