24
Coordinates from ORCA-job 19960optt
  Br  1.24247965112511     -0.50040504235975     -0.02378838730402
  C   3.07687064316064     -0.16442955489764     -0.07710326148312
  C   3.63075145127726      1.06503681874351      0.08607823276160
  Br  2.53606899940583      2.56984364126439      0.38068428517563
  C   5.05726083029941      1.26761967828451      0.05122993797011
  C   5.84032887441486      0.17811451646568     -0.15888694814117
  C   7.32694733023567      0.26063887793496     -0.28140871036627
  C   7.69738149961278      1.16394012067694     -1.47591947033824
  C   7.73163971195747      2.64549247181944     -1.08830564598577
  C   6.63616450279383      3.26312644447339     -0.23307616806437
  O   6.74030911546667      4.43558928288073      0.04510204729572
  N   5.57856175339122      2.55198388438793      0.28148116281908
  C   9.01165199396466      0.78657846432709     -2.00479391771316
  N   10.04500908127005      0.48152407580599     -2.39396797412731
  N   5.26372204620972     -1.03909205531586     -0.36822585440948
  C   3.91044754775237     -1.34084471575530     -0.32678599694922
  O   3.52174298013625     -2.47479434472736     -0.49179661261256
  H   7.74362085637707     -0.73684733054671     -0.41694764817728
  H   7.76181872170649      0.67684029292439      0.63144293528958
  H   6.97351708069801      0.99546717446420     -2.27665267378865
  H   7.80001655809269      3.26927031428478     -1.97941261268454
  H   8.64414463651890      2.83743137560828     -0.51991972927967
  H   4.98448009904576      3.16459570187437      0.82677777625986
  H   5.85406403508718     -1.84168009261796     -0.54280476614674
