23
Coordinates from ORCA-job 19967optt
  Br  1.76261422553254     -0.22354810220077      1.17287145630249
  C   3.47163756126638      0.33918824744951      0.68770485703983
  C   3.80796802570134      1.60144208716584      0.39968487876244
  Br  2.54344118030543      2.99210961221700      0.44169477918865
  C   5.17495965042864      1.95601770786380     -0.01770522480130
  C   5.41076042290076      2.94102937105418     -0.89697585866131
  C   6.81405929340215      3.08818199007277     -1.31226360253781
  C   7.64876700318216      3.72455816450915     -0.50097856042511
  C   8.88174445400538      3.00444842131123     -0.14204412175392
  N   10.03374904103234      3.07123509714593     -0.64093146231069
  C   8.43329292647019      2.08567607170728      1.00164245116435
  N   8.92736769484185      2.16766979369882      2.16563031129328
  N   7.47832107019359      1.11553635561162      0.74222972464339
  C   6.26341576207801      0.98994224201283      0.41457218062075
  N   5.79296082520415     -0.32197051809603      0.40183801150741
  C   4.49359664534335     -0.74616884182432      0.60287457902086
  O   4.23501859206042     -1.91308279371479      0.73129902065062
  H   4.59904015909144      3.55613439132278     -1.26660444569923
  H   7.20169270730589      2.35740198009588     -2.01754013985159
  H   7.24492505439923      4.36844251600419      0.27623005631795
  H   10.65800046669779      2.38747824712689     -0.20774685130289
  H   9.63504706806027      2.89997768518201      2.19601008061306
  H   6.49462017049654     -1.02969972571584      0.58450788021876
