24
Coordinates from ORCA-job 19965optt
  Br  2.57305310081705     -1.24568841110638      0.35974306507168
  C   3.99393168346364     -0.01320719458655      0.29727955729352
  C   3.79144651534758      1.32735577683287      0.24862820956400
  Br  2.13243057539481      2.16213666623185      0.03431438567515
  C   5.00552691334347      2.13105471042468      0.16622619335312
  C   5.24955449573966      3.15239888180614     -0.69055100734275
  C   6.64747590817478      3.31696220229431     -1.07163917098651
  C   7.60578684512533      3.47407044883771     -0.15385751469355
  C   8.97421591179044      2.92183405340635     -0.12974398136508
  N   9.31400745730062      1.69393213149961     -0.21299671483976
  C   8.69451840256981      0.47279641990848     -0.43883036364887
  C   7.56977222085881     -0.20319790910612     -0.08884347658998
  C   6.25313616405605      0.20196687985263      0.38179305407934
  N   6.04149186887999      1.47087769405636      0.86827709577303
  N   5.23825564921823     -0.57094332534681      0.15379478564200
  C   10.00951572529608      3.87069866257115      0.20155651286303
  C   10.81840138578279      4.71750288825280      0.45587907470425
  H   4.42487503386306      3.57063594372563     -1.25120468988359
  H   6.90400097175907      3.05412914407049     -2.09577113702984
  H   7.33023243693446      3.91917504593737      0.80233946088134
  H   9.40890918747398     -0.17131640817173     -0.94451539386355
  H   7.58058613070310     -1.24811196946793     -0.37096299467869
  H   6.87500383904772      2.00420144329449      1.02956732205367
  H   11.55087157705926      5.45773622478255      0.67651772796804
