27
Coordinates from ORCA-job 19968optt
  Br  2.17994849411335      2.16106562007898      0.48186392538121
  C   3.60632765889370      1.01620786235163      0.05010867035662
  C   4.88211656386230      1.20444919610977      0.48337501736432
  Br  5.19229508218891      2.65344637807340      1.67028781394344
  C   6.02747341190938      0.37088863885762      0.16751899048846
  C   5.85379215975032     -0.83572043735410     -0.42926831799666
  C   6.94517916889594     -1.86316089176149     -0.62925731755940
  C   7.70339986555096     -2.24341731212684      0.66300631675072
  C   9.22038600786053     -2.14603173765371      0.56924146735887
  N   9.80157650566326     -0.79826711861503      0.70518006735515
  C   9.66410674543849      0.11930758761709     -0.35109036631889
  O   10.59799660046364      0.45397143916617     -1.04732881656767
  N   8.40575308878357      0.62884807487156     -0.53964871619903
  C   7.43207928309236      0.85482243660077      0.51311499570508
  S   4.35165620172406     -1.39997661841249     -1.04893707603759
  C   3.18350482067586     -0.09156204493071     -0.80873769971126
  O   2.09474263186754     -0.21872931794659     -1.30325832487051
  H   7.63962633627465     -1.49341862877796     -1.38283295012940
  H   6.49314876785665     -2.76086018625785     -1.05235859256408
  H   7.47097778068201     -3.28339894675251      0.89601967081468
  H   7.34769453757574     -1.66404804430432      1.51469927349142
  H   9.65000916347393     -2.72605732771258      1.38550633365366
  H   9.55117818562095     -2.61360109346191     -0.36701131722932
  H   10.79943462170958     -0.88955135803567      0.85262506146086
  H   8.38998266787659      1.29123886472747     -1.30179543340243
  H   7.39262379085816      1.92295820614499      0.70813113401281
  H   7.80598985733732      0.39159675950433      1.42484619044895
