26
Coordinates from ORCA-job 19976optt
  Br  1.94555839156733      0.30638558493017     -0.93851377533693
  C   3.41687222579605     -0.82479172175596     -0.59206399756553
  C   3.97137213432247     -1.62610763740725     -1.58736930944014
  Br  3.22609875460167     -1.75778461012504     -3.30906300907414
  C   5.07608893755473     -2.42433089699995     -1.26576805214280
  C   5.67345392006682     -2.29754752739541     -0.02280324150618
  C   5.00599190278793     -1.66032842728196      1.00867225848983
  C   5.30019503749244     -2.15941900683436      2.39119934541993
  C   4.69081778718375     -3.57389081719023      2.49053591887678
  O   5.24858258891571     -4.45630897951007      1.52602890948549
  C   4.44629060877446     -4.80949113292323      0.43362555514712
  O   5.29461390731497     -5.25676983276172     -0.60792309374621
  C   5.64520557632012     -4.61428386804275     -1.75577366367212
  N   5.54205088155547     -3.41103118080441     -2.13659001750869
  C   6.23640570377048     -5.57624906917176     -2.65725152838236
  C   6.72670488895764     -6.37616446049523     -3.39851723547457
  C   3.88470434448397     -0.89472420474451      0.71528573748246
  H   6.54423825726121     -2.90124018728751      0.19010206246273
  H   4.85392929292837     -1.52932717688411      3.16224060753828
  H   6.37386346765924     -2.22625858428034      2.57291092904019
  H   3.60478364172560     -3.51058413598465      2.37029205063248
  H   4.89855361761984     -4.00279790897162      3.47136655909550
  H   3.79933781371485     -3.99114105850507      0.11176172567843
  H   3.84403382210055     -5.68503760890093      0.68588166174904
  H   7.16273801487279     -7.08001686828790     -4.06717237003125
  H   3.34951448065148     -0.37475868238416      1.49890597278265
