21
Coordinates from ORCA-job 19971optt
  Br  0.95903598309510     -0.44996433022812     -0.05848839214323
  C   2.80164673715086     -0.10663947436275     -0.06206567107075
  C   3.34124083881954      1.13541616163244     -0.05667123393780
  Br  2.20527142821852      2.62521830103628     -0.04077697243064
  C   4.79547627973225      1.26823850987797     -0.06114731700382
  C   5.53095980027312      2.42860557295647     -0.06258860127721
  C   5.03633470415746      3.76020176315423     -0.06495081356817
  C   4.80361593426746      4.93796364297428     -0.06807175010596
  C   7.01459195483186      2.38886422237976     -0.06399125322770
  N   7.82960831475531      3.34200040759361     -0.06504168625202
  O   7.58922209946759      1.13354666129865     -0.06360039899943
  C   6.88696499468829      0.01932982572552     -0.06546393242041
  C   7.72206879636879     -1.22129255375674     -0.06780124851444
  O   8.91880282130700     -1.17142864133693     -0.06771688935008
  C   5.52267413063277      0.00365371485447     -0.06484886142149
  N   4.91884503573517     -1.23555668561608     -0.06915092865065
  C   3.64341477959474     -1.28602056695415     -0.06915810748350
  H   4.54003258517372      5.96933466082111     -0.07064558125875
  H   7.34554461845009      4.23428526941097     -0.06501856736658
  H   7.15368396800046     -2.15824563554190     -0.06916583398096
  H   3.16096419527984     -2.25751082591910     -0.07363595953639
