26
Coordinates from ORCA-job 19975optt
  Br  1.68393179683549      0.15370646035995     -0.37221951668040
  C   3.23167584226171     -0.91946248552505     -0.25349783218088
  C   3.72198208713717     -1.60868213742703     -1.36082548891060
  Br  2.80213690347288     -1.67517326053214     -3.00001424793570
  C   4.89629591903773     -2.35207602272283     -1.21673850903620
  C   5.60269826105018     -2.30396335647802     -0.02685141081914
  C   5.00602509344349     -1.80025142749194      1.11514674484255
  C   5.45863561897840     -2.40642443510380      2.40886566580376
  C   4.93673957156122     -3.86031601181147      2.42762975599996
  O   5.42600362538235     -4.61504760050542      1.32596694848585
  C   4.52086597710729     -4.91788113800069      0.30267199792782
  O   5.25820613743007     -5.23125609816265     -0.86755392606904
  C   5.49035905447207     -4.46803999580151     -1.94642433761607
  C   6.05705567290362     -5.29290443072256     -3.08577349416868
  O   6.24018156057700     -6.46948942717970     -3.02698492037043
  N   5.33156284819869     -3.23793797066031     -2.20813007955224
  C   3.82981953832293     -1.06924918121627      0.99312826872068
  H   6.51739941363636     -2.87473318855603      0.04694342891675
  H   5.05959694967944     -1.88105310062514      3.27785449923011
  H   6.54712310811519     -2.42342232664503      2.48226167196252
  H   3.84230468635250     -3.85379206725832      2.43183636855750
  H   5.27611883972640     -4.36558892699082      3.33235127855518
  H   3.80850041815678     -4.10921176473915      0.12555409126010
  H   3.98820056544574     -5.84167084825670      0.53615610779289
  H   6.28000002312268     -4.67944719249894     -3.97349671326443
  H   3.35158048759256     -0.64263206544836      1.86514364854814
