23
Coordinates from ORCA-job 19984optt
  Br  1.22897406511502      0.23041851533490     -0.08709614480208
  C   3.10097805506716      0.05484550532688     -0.05733347624996
  C   3.72646472971196     -1.15508061247069     -0.05219993024148
  Br  2.81455623830830     -2.79399098607542     -0.07180072197131
  C   5.14333348528484     -1.21432442416731     -0.03397032198501
  C   6.05692543044516     -2.25703803595953     -0.02531041742934
  C   7.33064923628838     -1.68323147410705     -0.01415166312657
  C   7.20150648429456     -0.30399873076148     -0.01544237326355
  N   5.85671715258017     -0.01437227764247     -0.02611787174248
  C   5.22287843533465      1.20236505761144     -0.02781138658172
  C   3.87237859849439      1.25072885263761     -0.04249523840051
  C   8.24246965221699      0.69198933102988     -0.01321806092967
  N   8.09422946979772      1.98142346401252     -0.01099668490417
  N   9.36797510667904      2.47749028796408     -0.01343815254585
  C   10.34054032207861      1.51411433971550     -0.01785802225429
  O   11.54261446059088      1.62481874222959     -0.02198550564729
  N   9.57407155468174      0.35269587607304     -0.01672243772564
  H   5.80740572498702     -3.30328781334891     -0.02775262408519
  H   8.26468100714752     -2.22247504318170     -0.00610120194661
  H   5.85929026117737      2.07226676974303     -0.01803049148630
  H   3.37278378563832      2.20717521509748     -0.04360967457319
  H   9.53049663593296      3.46825993250584     -0.01404427112460
  H   9.97408010814715     -0.56879249156723     -0.02151332698319
