23
Coordinates from ORCA-job 19987optt
  Br  1.06686301093625      0.17105507760831      0.29765190948869
  C   2.94406885732775      0.13260740665018      0.16547889236008
  C   3.67122244273645      1.26195360288366      0.34592093473754
  Br  2.94241182219743      2.95187163241805      0.71368396776745
  C   5.08129020937457      1.13078244821956      0.26205151512397
  C   5.70673847217088     -0.08452598599889      0.04009488430211
  C   7.10955298929094      0.14750341794193      0.03304222638614
  C   7.28095189040930      1.48435966338094      0.24397558223830
  N   6.04411143753997      2.07668902678176      0.38501757154238
  C   4.94693406791116     -1.29038339455483     -0.12813941571592
  O   5.40204320280446     -2.40349021362777     -0.29312165782468
  N   3.53453380163413     -1.08757831833345     -0.10168981882417
  C   2.73693719107384     -2.28763314358639     -0.28942947535708
  C   2.14177318854038     -2.85876889352560      0.99093077159049
  O   1.28247706797521     -3.69487069294530      0.94666905477080
  C   2.69173088880599     -2.36096692620395      2.24723394781559
  C   3.16799211308680     -1.92415244802535      3.25586203647332
  H   7.87854292047396     -0.59101216596519     -0.11453755531526
  H   8.17927443560958      2.07448991759426      0.30272462519934
  H   5.86534539097738      3.05335088858206      0.55127632082595
  H   3.41025936330510     -3.04592563207710     -0.68827534708480
  H   1.92837735444994     -2.12367200432105     -0.99749727481296
  H   3.57656788136844     -1.55168326289584      4.16607630431269
