22
Coordinates from ORCA-job 19989optt
  Br  1.01936491211848      0.07774129270485      0.12472366641595
  C   2.88904372831705     -0.05094906479626      0.22245338772390
  C   3.61813723662736     -1.10293798991316     -0.21751186045961
  Br  2.80576896968367     -2.61758430541904     -0.98947663695178
  C   5.03624085843446     -1.10659693257840     -0.12209474343630
  C   5.99624503731472     -1.98175098490812     -0.50984050373020
  C   7.29775300814267     -1.44129129637272     -0.15672477105209
  C   7.15505768195905     -0.23763307769668      0.46002298315906
  N   8.11566997676276      0.57896090098791      1.04727684470311
  C   9.30247910692917      0.92917676804792      0.30723646897961
  C   8.24396602106591      1.94991024292734      0.57488075286563
  C   8.42528175364429      2.98189314060069      1.56489175538637
  C   8.58627012039721      3.85173551094984      2.37143821105628
  C   5.72871630367797      0.04977884805386      0.50793922604560
  N   5.19655082588555      1.11466720691014      0.98297632510760
  S   3.58659573351335      1.35625381274390      0.96170995169323
  H   5.83003738009062     -2.92587254349366     -1.00444694767435
  H   8.23911853568024     -1.93672151186017     -0.34394206323702
  H   9.38054821358678      0.56537638562335     -0.71162567044441
  H   10.21759233364876      0.96239038849995      0.88226027685593
  H   7.62466888186092      2.22363618923023     -0.27254756371534
  H   8.72489338065891      4.61581701975823      3.09840091070884
