23
Coordinates from ORCA-job 19983optt
  Br  3.71614008038903      2.68642213082863      1.88780916463829
  C   5.04207102361221      1.72781638810844      0.94362444787826
  C   5.02462590666348      0.32051397705541      0.90984038013608
  Br  3.72528851544287     -0.73665281082997      1.76604150329502
  C   6.02328747107754     -0.26559685776305      0.17951295581031
  C   6.60622280369133     -1.58074192888699     -0.24752720464605
  C   8.05073715560385     -1.62391285081038      0.22164167728034
  C   8.73101706531659     -2.93045812198645      0.04255406320796
  C   8.72960617745518     -3.85714384637446      1.22392993226973
  O   8.53518303257469     -3.48381165350054      2.34286537288586
  S   10.17496925442465     -3.09581290932311     -1.05069949933734
  O   10.46952140085581     -1.88576520624482     -1.78124472123917
  O   8.60099837270885     -3.59310476725793     -1.20855966108829
  C   7.69232734354287     -0.78898388916624     -0.97565294547582
  C   7.01202152493538      0.46584697810214     -0.47727926405518
  C   7.05263173294440      1.83578694774305     -0.43898249087849
  C   6.02608720707185      2.45540740482480      0.28863956105812
  H   6.08995419900302     -2.46254544140791     -0.59439775067864
  H   8.29663156979242     -1.14458315110789      1.16100309918152
  H   8.94739064893783     -4.91335303302706      0.97647568350107
  H   8.09845688675979     -0.98199799555813     -1.95510060281742
  H   7.80027282620824      2.42837398360771     -0.94824750854050
  H   5.98555780098807      3.53429665297476      0.34675380761435
