27
Coordinates from ORCA-job 19995optt
  Br  2.10010895563479      0.57079563414963     -1.91252686986561
  C   3.66928093867882      0.10340049933550     -0.97572408856734
  C   4.69095083848842      1.01451652177843     -0.71940148403262
  Br  4.55705458690377      2.78894493458188     -1.35173744864063
  C   5.82722353742223      0.61499796462245     -0.01137542221158
  C   5.94796756011086     -0.70781955031520      0.42798030730451
  C   7.19266941529365     -1.18887901287753      1.12788129686320
  C   8.40701881176694     -1.31916051351576      0.19862438154651
  N   9.23351924943732     -0.12002581577349     -0.00571658247854
  C   8.88429667718700      0.90348272786727     -0.89235890384832
  N   7.87769702231472      1.66564523475771     -0.86709366330090
  C   6.95601185659995      1.57629951315591      0.25647796686934
  C   4.91270724313870     -1.59204247682287      0.14426345684587
  O   5.08124085444280     -2.92543251860756      0.50850750622194
  C   4.10627915579524     -3.56833582865037      1.18595552652397
  O   3.07041686080288     -3.10685647401709      1.53989195314701
  C   3.77948678715622     -1.20600121279170     -0.54397825720527
  H   6.99695959666352     -2.17856406766632      1.53479638247673
  H   7.44731067353470     -0.54649342283433      1.97072063457054
  H   8.06671965655204     -1.72078704132935     -0.76197811146748
  H   9.07977108318105     -2.05573580682180      0.63689714495229
  H   10.18909437635456     -0.39953822176743     -0.16883804720397
  H   9.62360939220361      1.08759809078730     -1.67362814147094
  H   6.54623741150334      2.57190182120034      0.41255870282362
  H   7.48704657951096      1.28180732096185      1.16425703615906
  H   4.43133744424400     -4.59987768196480      1.36112258425008
  H   2.98898343507785     -1.91384061744267     -0.74157786026144
