21
Coordinates from ORCA-job 20005optt
  Br  1.22900087893415      0.29628370810143      0.08981877441802
  C   3.09084636669918      0.13607573387212      0.09001313992454
  C   3.73304695623276     -1.07066311828876      0.09077421831340
  Br  2.86182354029661     -2.72648721914449      0.09186244029363
  C   5.14621399778655     -1.04968713976479      0.09076838123707
  C   5.88867911507494      0.10291016076796      0.09018374549880
  C   7.26127040814269     -0.27960490401664      0.09045122525890
  C   7.23537052710394     -1.63439860301040      0.09103563498529
  O   5.97213249712809     -2.11878439232517      0.09132407956690
  N   5.23709776863749      1.30292825282057      0.08961440409372
  C   5.66904386584838      2.60377274791500      0.08903356854019
  C   4.50324577295887      3.35261941326938      0.08846973431065
  S   4.85779897108771      5.03578569361645      0.08784448799011
  C   6.55719264980065      4.69008495315213      0.08840167021946
  C   6.86637761808384      3.36522005334390      0.08902869093147
  N   3.38168727535220      2.59873200757179      0.08868677142095
  C   3.83459670428339      1.35872472296227      0.08939249094204
  H   8.13441153843466      0.34877456630681      0.09018003353947
  H   8.01868558839756     -2.37164075773841      0.09140673095348
  H   7.25099022448249      5.51489135587903      0.08823765321000
  H   7.87548773523382      2.98446276470982      0.08947212435193
