23
Coordinates from ORCA-job 20002optt
  Br  0.97800366040381      0.22206662550914      0.22594635177759
  C   2.84953896428307      0.16120784689226      0.07972985632305
  C   3.62682883266676      1.24941421923273     -0.06033150753150
  Br  2.82932052148503      2.96465987435220     -0.15830962367478
  C   5.07586563917187      1.15892284836650     -0.14606116729342
  C   5.76978500868715      0.00419602675644     -0.15472302037567
  C   7.26410825741536     -0.00307912287775     -0.31276190956607
  C   7.91670660874408      1.35056967162447     -0.41706900574687
  N   9.07360841010675      1.60526041998886     -0.82293720038040
  O   7.18617413106688      2.37873728377217      0.10009746355006
  C   5.84633689185030      2.45724676034107     -0.26216255041099
  O   5.74912603943913      2.84976737781016     -1.62718418372431
  C   5.76779179425149      4.17977317223975     -1.86819059282204
  O   5.79336323037183      5.02887277325289     -1.03769510077435
  C   5.16634071545012     -1.33031305996687     -0.03174916842650
  N   5.75672194444332     -2.45318758460959     -0.03593971149614
  S   3.41588657590791     -1.46685590572677      0.16043838611505
  H   7.53402624026234     -0.58751824832982     -1.19599541621310
  H   7.71174634318047     -0.51117221031889      0.54934191169011
  H   9.55267643819721      0.75763534571516     -1.11795135231900
  H   5.42491937813617      3.23230444964303      0.37111839497034
  H   5.74164549674748      4.34757548815837     -2.95022083164832
  H   6.76447887773106     -2.37008405182560     -0.13639002202271
