25
Coordinates from ORCA-job 20004optt
  Br  0.96347370454938      0.54965790992619     -0.45139376458674
  C   2.81249218189999      0.28041498108060     -0.20590271624380
  C   3.68691774102092      1.34985017479871     -0.10915010576378
  Br  3.17371343561693      3.14810111869326     -0.19782827963145
  C   5.02831351377014      1.02782920927023      0.06788851580612
  C   5.50800224266907     -0.28026892124296      0.15889917402891
  C   6.92851328731261     -0.14930178069235      0.32644984118432
  C   7.18264543042817      1.18159424711810      0.31704600947769
  O   6.03591094526184      1.91667281015675      0.16659442208329
  C   8.39869114165118      1.89626927587542      0.42488794063684
  C   9.43924829416865      2.48371907906227      0.50974693706655
  C   4.60404451857825     -1.34894070575281      0.06652119155323
  C   5.06005872231165     -2.78388137408817      0.15698017931193
  N   5.88461965770645     -3.04417840745359      1.31642914201171
  C   7.19905338960582     -3.41352664617217      1.24159848435564
  N   8.05708670905346     -3.51006871167175      2.16993627641808
  C   3.27080209807323     -1.04269867587142     -0.11426132469606
  H   7.67058413247379     -0.92027452790142      0.44994618768899
  H   10.36459103453379      3.00384033209294      0.58568192493208
  H   5.65422360963850     -3.03880088457512     -0.72415224617167
  H   4.18226829119974     -3.43444825823180      0.14826531618230
  H   5.53151296116188     -2.74773457177583      2.21385203057639
  H   7.50714850689667     -3.65673080221279      0.22284172473936
  H   7.66983204463188     -3.25882367910202      3.08008918553840
  H   2.54325240578583     -1.84027119133025     -0.18896604649833
