24
Coordinates from ORCA-job 20013optt
  Br  1.20207256893047      0.09179856079861     -0.22949006781155
  C   3.08104159364340      0.02497892470825     -0.09285699441129
  C   3.74979118270136     -1.17004277099175      0.04514046229789
  Br  2.91560613517670     -2.85489657969057      0.12348953893242
  C   5.13998077850957     -1.10889060526738      0.12870626468780
  C   5.86846556383194      0.09375666375159      0.08188802021253
  C   7.26069179373630     -0.28872420376483      0.20394501086935
  C   8.49429275724914      0.48087210072955      0.27332553300366
  O   8.58973699212593      1.68333020993711      0.28882315403351
  C   7.28672064281343     -1.65917769162024      0.30494678505877
  N   6.02611106547261     -2.14980581998658      0.26337882216723
  C   5.15992595493036      1.29971331144237     -0.07922509179632
  C   5.88148061743763      2.61923150804597     -0.18268905423127
  O   4.98885531747454      3.71383774588428     -0.39791699293952
  C   4.59709200039833      3.91829792966495     -1.65891895180687
  O   4.89852647618120      3.24894560794625     -2.59972451153262
  C   3.78532626477162      1.23723727501604     -0.15039608283307
  H   9.40347769414089     -0.14905300698392      0.32361515696316
  H   8.13909506572394     -2.31164199369350      0.41017316134900
  H   5.75562279706492     -3.11825375200198      0.32123312281215
  H   6.61124995838042      2.58120553843700     -0.98888184188479
  H   6.40874995808830      2.84616399408556      0.73957537696489
  H   3.95035050395751      4.80298825566497     -1.69884998512710
  H   3.21273631725941      2.14612879788821     -0.25829083497796
