23
Coordinates from ORCA-job 20018optt
  Br  1.60640790454014     -0.87693045458361     -0.05638615547690
  C   3.40601844197317     -0.36714070301418     -0.01408958695711
  C   3.87339654692200      0.91537275920192      0.25820382638307
  Br  2.60934421019333      2.26963320548021      0.61491996039425
  C   5.25631517129920      1.22923793819779      0.27396571626462
  C   6.20248910362096      0.24576190207694      0.02575175645296
  C   7.66418377939089      0.57414328677781     -0.00587368175965
  C   8.01660648772843      1.47367240231073     -1.18047083285694
  O   7.55419631879916      2.82345472299275     -1.15504284083366
  C   6.43359312418617      3.32415806880300     -0.59995652649687
  O   6.02998561524552      4.37972254565645     -0.98482467372216
  C   5.78078290363009      2.61098505114871      0.57639599406316
  C   5.72440203256538     -1.02952341150938     -0.25113121790784
  C   4.37691879889321     -1.32445997174630     -0.26968468732157
  O   4.24128411350893     -2.61582862151823     -0.56797099687726
  N   5.55514504146578     -3.11730337968705     -0.73856141238564
  N   6.38001778710503     -2.21312991238018     -0.55816031076848
  H   8.23605010109851     -0.34618437904578     -0.12881953222093
  H   7.98368540994717      1.02985795047799      0.93431654241989
  H   7.64737335239899      1.02138210613882     -2.10404764355037
  H   9.09920088034365      1.56360462438208     -1.25508364157639
  H   4.99621097534830      3.27620474800245      0.91510598743337
  H   6.52539189979593      2.54230952183703      1.37344395730046
