22
Coordinates from ORCA-job 20023optt
  Br  1.28409599707149     -0.17631535769901      0.17434381068150
  C   3.14126150214520      0.03142712831614      0.08294528732717
  C   3.77122123478267      1.23650982981148      0.04181119275342
  Br  2.84926291464381      2.86471458853942      0.07121547177825
  C   5.19014084287133      1.17832656208531     -0.01900114128790
  C   5.88157362886936      0.01934356354254     -0.03828537917527
  C   7.34889991977732      0.29573000347319     -0.08745401350513
  C   8.07566361510558     -0.26907149724030      1.12304179549229
  O   9.43472759470063      0.15423209075176      1.17316003084719
  C   10.27564648459309     -0.42555484573279      0.31267851253094
  O   9.97705437440508     -1.25301226394712     -0.49452889684232
  O   7.42214712735618      1.72241246559288     -0.09638523292897
  C   6.19377088101279      2.29557895595259     -0.06783064467695
  O   6.01716249478835      3.46938774557610     -0.08137048740974
  C   5.23534075204925     -1.27145648570818      0.01843127161142
  O   5.76445913026998     -2.36107975157012      0.03410069321044
  N   3.84464491846444     -1.13805925636566      0.06551384194128
  H   7.80747056592937     -0.08069054415733     -1.00410709129697
  H   8.00957605095445     -1.35742933036519      1.08824029809766
  H   7.62474286288444      0.11271875111755      2.03753437717944
  H   11.28428812421837     -0.02366927177247      0.45961781327462
  H   3.33384898310672     -2.01104308020080      0.10432849039765
