22
Coordinates from ORCA-job 20027optt
  Br  0.99121581361874     -0.19821678884265     -0.08615562126945
  C   2.87051096247440     -0.10795160985639     -0.06638025874592
  C   3.54639190955793      1.09957348216429     -0.07176603846519
  Br  2.70863672286750      2.77127898311309     -0.09668890692365
  C   4.94283819791834      1.03243705550047     -0.05835494307788
  C   5.67911503190100     -0.14597334616661     -0.03989581670591
  C   7.03794325422320      0.33610320415978     -0.03508060704356
  C   8.33560066500664     -0.42488075723899     -0.02086997907354
  O   9.39697940804492      0.12989530944440     -0.02657913710515
  N   7.06050875738144      1.63475558815034     -0.04850712280384
  O   5.77002629684925      2.08730484861120     -0.06300328287382
  C   4.96553187070554     -1.34836782876563     -0.03182651471330
  C   3.58736066223361     -1.30922619063671     -0.04571266457522
  C   3.03258235138793     -2.70344526521503     -0.03161825437597
  N   4.24481406916195     -3.49476202631784     -0.02021081016688
  C   5.40622927716165     -2.76267113770292     -0.00615477917808
  N   6.61980268420234     -3.13925821830267      0.02250789233038
  H   8.22058286153918     -1.51631484494795     -0.00523664929709
  H   2.41712421682182     -2.89662636408827     -0.91501162057659
  H   2.41337098757062     -2.87538098065776      0.85385323723014
  H   4.24196638584668     -4.49808102785402      0.02388223584021
  H   6.71286761352522     -4.15219208455008      0.03680964157033
