24
Coordinates from ORCA-job 20030optt
  Br  0.90215323547534     -0.12163209777826      0.18491519985825
  C   2.78355740788558     -0.09842215966990      0.05274950119416
  C   3.50297202957715      1.07284936024155      0.16580261992008
  Br  2.70536385643686      2.74849006819425      0.46029734412752
  C   4.89517837624981      0.99087270956675      0.05452937676205
  C   5.55905523960947     -0.22891184976612     -0.14447038150833
  C   6.98246708123909     -0.05991569586850     -0.18094085661844
  C   7.34642041043775      1.23269742652490     -0.02802189089685
  S   6.01096396792227      2.30192232719514      0.17594810263483
  C   4.79637687432465     -1.40761263018096     -0.27207486763537
  N   5.45170901025726     -2.61691484142716     -0.49243803215465
  C   4.93480767180894     -3.85901720207876     -0.25887871769245
  N   5.51899204109940     -4.90514612210990     -0.66524898954284
  C   4.90260885614593     -6.16717451557400     -0.32181689950209
  C   5.78277407940572     -6.97859192130881      0.53271096959418
  N   6.45080031159216     -7.62117218663254      1.20541398968562
  C   3.42028139240457     -1.32328328016054     -0.18602448076645
  H   7.69701454317450     -0.86187795610559     -0.29949597472646
  H   8.34891998889835      1.62974515170871     -0.01408552370606
  H   6.36166346255415     -2.60203196528740     -0.92856246860800
  H   4.00896078730146     -3.86579849644362      0.32195920633244
  H   4.72038755284030     -6.74003518661289     -1.23363746759444
  H   3.94309450727161     -6.05837878918283      0.19952846003833
  H   2.80147731608760     -2.19566014724349     -0.33215821919504
