22
Coordinates from ORCA-job 20032optt
  Br  3.16376338839484      2.97360552926928     -0.12490567587723
  C   2.29946504537963      1.32300201261272     -0.36193301694980
  C   2.54378576687329      0.23392334323696      0.38249571288692
  Br  3.74080323013348      0.10294803571454      1.80776959087726
  C   1.63706881065329     -0.85603853389616     -0.02794827214034
  C   0.47486042846929     -1.06930523233826      0.59208639700377
  C   -0.71249426906624     -1.18575972762514     -0.24764219719369
  C   -1.72254066763290     -0.32219383076699     -0.09579024491342
  S   -2.75588306297442      0.03767232694225     -1.48326587205277
  C   -1.53159203175568      0.92656190800481     -2.47973695452923
  O   -1.41134299232902      0.71366109557824     -3.64670839625060
  C   -0.81873681174031      2.19110808845933     -1.90897316207293
  O   -1.51205476206239      3.14450551290728     -1.68438763956930
  N   0.56222171641034      2.25521974663981     -1.91802663501063
  C   1.38663108171480      1.18897292224413     -1.51759329563098
  C   1.30484167171672     -0.02069051790954     -2.08930231657275
  O   1.73949484175677     -1.11315617941725     -1.39357278027308
  H   0.38329635849929     -0.74946636658456      1.62324463156713
  H   -0.63818606669194     -1.75913783945108     -1.16415526028854
  H   -1.83837281271713      0.27949788248205      0.79806923849758
  H   0.89600281237171      3.18793477915705     -1.70120906134152
  H   0.85596832459656     -0.23386495525946     -3.04951479016585
