22
Coordinates from ORCA-job 20037optt
  Br  1.25532517519319      0.50795935785528     -0.23198509853489
  C   3.11928971766533      0.22697394442905     -0.05342056977472
  C   4.01609771066965      1.25786837417119     -0.34909145226068
  Br  3.53084228431073      2.97627651174275     -0.90466056440396
  C   5.35066144598219      0.93747653624497     -0.20123393242016
  C   5.76068394408648     -0.34467371736643      0.23649640067079
  C   4.76429017864802     -1.27214084776779      0.50517430769956
  N   3.48103261253556     -0.97307867025491      0.35372802225499
  C   7.18781351324003     -0.23559475501880      0.25433390475220
  C   7.49254191548476      1.03029244578864     -0.15301074243764
  O   6.39048622318886      1.77644267191390     -0.44159300472144
  N   8.80780065844655      1.30123889059594     -0.17597907758668
  C   9.33975520416039      0.16342292669162      0.23285976378960
  C   10.81272279885971     -0.07188463400352      0.37968393847373
  C   11.11451076918289     -1.37137609087158      0.97181914981236
  C   11.32437153782942     -2.44343411113465      1.46193612015021
  N   8.41361569133880     -0.79990194425595      0.50639523100440
  H   4.99180593473532     -2.27464116667321      0.84613783275518
  H   11.23254694884489      0.72647491480199      0.99474200424282
  H   11.28519177887428      0.00743299284241     -0.60231441324940
  H   11.53609488286443     -3.39030035626565      1.89967567160654
  H   8.64151907385845     -1.72183327346525      0.84430650817720
