21
Coordinates from ORCA-job 20038optt
  Br  1.09609452584679     -0.15310531785160      0.66330889454850
  C   2.96929140406304      0.05185300905038      0.63756140956658
  C   3.57580285700414      0.95337611837660     -0.15566350386854
  Br  2.65246164504021      2.00127595390792     -1.40211532993965
  C   5.05473396155743      1.06821586629088     -0.11631810478202
  C   5.70516118969170      0.16688277483249      0.87143921501307
  C   4.88520057550498     -0.78127929301597      1.57948285952975
  N   3.60994778244652     -0.83290257582048      1.49109589423917
  C   7.04497776901992      0.23828504451328      1.06487053595468
  O   7.81780198911019      1.16749328255526      0.48454370598738
  C   7.21231669565729      2.41228989445739      0.17502472876164
  C   5.85783930899459      2.25881944807461     -0.49415630382465
  O   5.72886555375383      1.18456626513779     -1.38211137233634
  C   5.32109756288667      3.56178683035557     -0.85142613823564
  N   5.04909958272084      4.65408173335274     -1.06433086060459
  C   7.77975139844409     -0.68128197329060      1.87170035851132
  C   8.41815722731123     -1.44598274322062      2.53622478978637
  H   5.37402103229389     -1.49157314811241      2.23984289036287
  H   7.90717914209363      2.92132289911875     -0.48950878197146
  H   7.08697957556630      3.00042975261978      1.08886377121697
  H   8.98821922099268     -2.12555382133177      3.12567134208459
