22
Coordinates from ORCA-job 20045optt
  Br  1.15690271948150     -0.50231597386890      0.21204047917150
  C   3.01409897200413     -0.18253957070028      0.08158209919502
  C   3.54592244016770      1.07742139868888      0.08533359415449
  Br  2.44542064162355      2.59749840666799      0.23802272542587
  C   4.96258745303039      1.23816161911331     -0.02254283424114
  C   5.75767313485163      0.05223066344931     -0.10653363934414
  C   5.05709050099814     -1.18757072347668     -0.10282827579419
  N   3.76588831923985     -1.29319973152555     -0.01702094148291
  C   7.16995117570637      0.12390398119114     -0.19211554150244
  C   8.06563618437812     -1.03540900344696     -0.24965283306892
  O   9.26948574136916     -0.91677371620320     -0.31324915367550
  C   7.73484642671492      1.39354468707832     -0.20913099984296
  N   9.01764320390310      1.80488775090381     -0.28799473463994
  N   9.12488427501918      3.15119450993925     -0.28202982813909
  C   7.91954768070076      3.63495994511428     -0.19646063903079
  C   6.95052328095481      2.57693418771138     -0.14236893412671
  C   5.58210766140622      2.50176833138542     -0.04599136609010
  H   5.59728505125172     -2.12281274105426     -0.17725189600056
  H   7.61904309394889     -2.03927939373823     -0.22620975772708
  H   9.82892532412135      1.21094322663355     -0.34769039179984
  H   7.75698416402571      4.70027698703791     -0.17449244680210
  H   4.97955255510275      3.39717515909949      0.00758531536152
