23
Coordinates from ORCA-job 20044optt
  Br  1.89295895320423     -0.26158794252207     -1.38884953129038
  C   3.63257015732942     -0.71599721885052     -0.85221701844227
  C   4.73029077743365     -0.48211300294584     -1.63232253224536
  Br  4.67512056057034      0.18683237414522     -3.38596216296622
  C   5.80354926879757     -1.26622947613017     -1.03379127619159
  C   5.88434209456547     -0.97247751243730      0.29298951543193
  C   4.87932459336901     -1.81933453352446      0.95953755381860
  N   3.65172326598747     -1.41721694946775      0.35996962724866
  C   5.03791908615036     -2.90624052946745      1.72307443249704
  C   4.15529436928607     -4.09385357466846      1.53674897635182
  N   2.94354811673932     -4.29504093551491      1.82725858594182
  C   4.99857083401025     -4.93739228166824      0.63835903642961
  C   4.82305647190135     -4.94961521107473     -0.67881352536647
  S   6.25601763674290     -5.12387922196542     -1.71331821153337
  C   6.81107227626566     -3.41085763063126     -1.59390488770269
  O   7.93891070051490     -3.06460341463518     -1.69198622356530
  O   5.73684002254374     -2.58827225287304     -1.46302027998812
  H   5.87260707312287      0.08527903277776      0.52694578641857
  H   2.80146375753778     -1.91103161900982      0.59726152622762
  H   6.04149435605406     -3.08694905007778      2.08559335488657
  H   2.58454095060156     -3.53918443856763      2.41281392308146
  H   5.96898458822208     -5.21784739027786      1.03693758213621
  H   3.89780008904991     -4.63438722061306     -1.14430425117814
