20
Coordinates from ORCA-job 20048optt
  Br  1.19635346816419     -0.31245223360087     -0.32320721500500
  C   3.07178388286547     -0.20968041842509     -0.14664400085981
  C   3.71058550565668      1.01723259546146      0.06123046599766
  Br  2.77589568754895      2.62646130291144      0.22266631884891
  C   5.11292397704950      1.03564069043855      0.13746884871898
  C   5.76474062313715     -0.20658723615343      0.08902693663165
  C   5.02800667895663     -1.35710929902191     -0.13310683871858
  N   3.70564675245795     -1.35511637549500     -0.26034258494953
  C   5.68179025246504     -2.64412666586509     -0.19010894922794
  N   6.21465083819871     -3.65777535099530     -0.21770954509386
  C   7.21077754303267     -0.18766013629464      0.40103116577245
  O   8.12549155647592     -0.56504878434206     -0.25279648728899
  O   7.33611159502820      0.42223818074574      1.62377055850197
  C   8.31500680485221      1.39940134932798      1.71699719231217
  O   7.82736295540716      2.65421924877680      1.26067879222964
  C   6.77943115371449      2.87703067427977      0.45367564609202
  N   5.75016031395738      2.24520929568178      0.09916684004007
  H   9.18638784313716      1.13995807902206      1.11639227360357
  H   8.56734568360034      1.53087164347108      2.76440179005568
  H   6.88654688429416      3.89129344007672      0.07340879233894
