20
Coordinates from ORCA-job 20040optt
  Br  1.18488254460911     -0.10615630857336      0.05278349935480
  C   3.07392159943829     -0.00193426294397      0.04699041934122
  C   3.74269550251868      1.21976700532967      0.00906137091444
  Br  2.76285061331571      2.81666594588106     -0.09787977841936
  C   5.15094147977066      1.20580955577096      0.03369642677973
  C   5.79739178192071     -0.05205720014158      0.05322491972284
  C   5.00015632148096     -1.20078870120749      0.07746812435443
  N   3.68506062724823     -1.17241719223672      0.08359899718479
  C   7.25028013379723     -0.17664152405173      0.04126278313550
  C   8.05076006182177      0.91534313506112      0.02918189509865
  C   7.44399021364924      2.20544404327858      0.03744579550417
  N   8.10802274718773      3.35479599018882      0.05087236195369
  S   7.00646691545937      4.52368079932268      0.07713785431974
  N   5.66261084627062      3.64855007638556      0.06792527857710
  C   6.01853703093123      2.37175227929621      0.04232114930002
  C   7.83390714909008     -1.48269797127377      0.03128739716746
  C   8.32536155729197     -2.57581654675887      0.01935830306642
  H   5.46498146229314     -2.17868924387590      0.09669427808726
  H   9.12775633654141      0.82908246049029      0.01707210928642
  H   8.76542507536375     -3.54469233994156      0.00549681527067
