24
Coordinates from ORCA-job 20055optt
  Br  1.88172757314023      1.05610204084291     -1.21957689023821
  C   3.22660932412718     -0.11942942729932     -0.66313170910036
  C   4.44736459610418     -0.20959295561337     -1.24345802015920
  Br  4.96557288488695      0.82506002964638     -2.71952050987036
  C   5.39472832691139     -1.12047427769871     -0.65181932333068
  C   5.11731371340462     -1.69458240199178      0.54371289138407
  C   3.73811542887727     -1.89686105196982      0.87648741471333
  N   2.88126007193281     -0.92803100754431      0.37871772358623
  N   3.23576092970273     -2.92569529083843      1.45953648077953
  C   4.08689771140044     -4.00098488004754      1.73257600399498
  N   4.19860206541841     -4.58537064144298      2.85178489409664
  N   4.87876321388085     -4.50531392472532      0.67553891561301
  C   4.97470716317070     -4.03112168320506     -0.63804088935640
  N   4.01569704638514     -3.77606564391886     -1.42247219681130
  N   6.30971954473341     -3.92838990964775     -1.06573667954252
  C   6.92066129124206     -2.87272031470235     -1.39485941110947
  N   6.53828276764916     -1.53170817372186     -1.31452765256329
  H   5.85902303166031     -2.31039869352782      1.02511013695808
  H   1.90278272830522     -1.03631937232949      0.61045961090937
  H   3.60957976234215     -4.11809308768347      3.53481946660319
  H   5.65389474994046     -5.06243226719847      1.00638297559762
  H   3.13124421313565     -4.04425776677248     -0.99579075893449
  H   7.91681411144053     -2.97470745628454     -1.82002693240158
  H   6.96787775020806     -0.90561184232554     -1.98016554081820
