27
Coordinates from ORCA-job 20053optt
  Br  2.14330085704708      0.96468187704433      2.09140766155779
  C   3.46763735707907     -0.09561969283781      1.25424301968755
  C   3.46827778797873     -0.28720932796753     -0.12562964289395
  Br  2.03991554647463      0.22012662365445     -1.24319940519978
  C   4.57113011114865     -0.96955144790634     -0.68430180887409
  C   5.61758082585008     -1.23903032428975      0.16128077814924
  C   5.30175105463578     -1.37375733028416      1.52141380070433
  N   4.29454734354024     -0.73592395930032      2.07554371128672
  N   5.93837463935837     -2.52683955169110      2.05430800735509
  C   5.38718018617918     -3.48520430185359      1.40175166881963
  N   5.89850665371607     -4.67879995100041      1.00749186914694
  C   5.42975028700382     -5.07677461259130     -0.34468602692002
  C   5.60443290305316     -3.99379580153812     -1.47321654618639
  C   4.37137933992483     -3.09266143213836     -1.78859033490683
  N   4.60927676902942     -1.62669282319152     -1.93016699031799
  C   6.13676214671332     -6.30347505323809     -0.71279280104542
  C   6.74160063066938     -7.28600692453212     -1.02914580823975
  H   6.52153375575725     -1.68512167440209     -0.21615286397265
  H   4.38705535619514     -3.35335918229610      0.97684519612876
  H   6.88838413629006     -4.81297374420341      1.17244990771022
  H   4.36538156440303     -5.31441296315865     -0.25319316269222
  H   5.85898459692893     -4.53439779609734     -2.38389028850558
  H   6.47999177998401     -3.39430072366636     -1.23641264555818
  H   3.58177287918249     -3.26475270025702     -1.04723781845583
  H   3.96263893516984     -3.41420753729759     -2.74533831354436
  H   3.92535044933358     -1.24241079213386     -2.56992772544218
  H   7.27250210735380     -8.16652885282580     -1.30385343779105
