22
Coordinates from ORCA-job 20052optt
  Br  1.19133986656630      0.11425204527026      0.43714020814104
  C   3.06834432086842     -0.03200679286804      0.23150502623090
  C   3.66362794035858     -1.25220070905602     -0.05039237348257
  Br  2.71844332613936     -2.85988972846666     -0.26320529247984
  C   5.05381748980539     -1.26607385187864     -0.18187529208267
  C   5.74534315985463     -0.05069236849685     -0.03587298701652
  C   5.05721413763978      1.12161370070857      0.25424874919509
  N   3.74433732077733      1.10110651482999      0.38218778921685
  N   7.09279567017087     -0.31748091845584     -0.19384540339399
  C   7.23718030284001     -1.67098954854115     -0.43828831904652
  C   6.02414170698903     -2.28418239739418     -0.43349781380609
  C   8.12301674000951      0.62387201894381     -0.22120847941185
  C   8.12436848101471      1.82416430012221     -0.81178519885243
  S   9.64273128625921      2.64127104511273     -0.57599465600077
  C   10.30010969728449      1.26845822694382      0.35496924903288
  O   11.38886681744217      1.19931528396570      0.85178204630198
  N   9.31171249267455      0.30722344607453      0.41263502710598
  H   5.55677614723097      2.07299245975660      0.39184514903450
  H   8.21824137741709     -2.08093115137290     -0.61832992920989
  H   5.83406805132820     -3.33125313784003     -0.59397908843742
  H   7.32953446886695      2.24496515655184     -1.40343196902566
  H   9.43498919846236     -0.49953359390975      1.00639355798700
