24
Coordinates from ORCA-job 20061optt
  Br  1.06893027231102      0.10942972690387     -0.27189685504555
  C   2.94415309289346     -0.00651661392169     -0.17324739876134
  C   3.62131951154444     -1.20920809111704     -0.01127567925023
  Br  2.72105388569946     -2.84339483586669      0.16154553568870
  C   5.02143545507691     -1.19137270764566      0.02913137427184
  C   5.64512629316933      0.05475345706017     -0.07330986424734
  C   7.14421103556105      0.14654580727060      0.02937770140168
  N   7.74564069898611     -1.17130279535901     -0.10595216845284
  C   9.18912368456025     -1.23645047732373     -0.01391435223825
  C   9.76346470062592     -2.48568993570713     -0.65573245756066
  O   10.84633564577985     -2.51538470941880     -1.15024546300873
  O   8.97022646351820     -3.56824576129627     -0.64392347169532
  C   7.82489209083960     -3.55496751687931      0.20347335921200
  C   7.01478181266768     -2.29458732933593      0.07514414254111
  N   5.73675433867609     -2.37919535632591      0.15159167429370
  N   4.99891937002141      1.19888046835268     -0.22164884278833
  C   3.67583823151186      1.17094868208646     -0.27651093978131
  H   7.42481831766045      0.59166687657964      0.99385158469579
  H   7.52366023547622      0.80634885552161     -0.75382698444816
  H   9.53055140510809     -1.19319065738751      1.02949939554778
  H   9.62423331744908     -0.38574837834401     -0.53513377199820
  H   8.14159627722814     -3.67800165300850      1.24436133183630
  H   7.21003497851474     -4.40242530847064     -0.07922166755270
  H   3.16189888512051      2.11510825363282     -0.40613618265994
