20
Coordinates from ORCA-job 20069optt
  Br  1.40885612484677     -0.25754282018173      0.60456081125241
  C   3.19764499234310      0.11436063138687      0.24549224577262
  C   3.72723927805640      1.35505061575150      0.16246942031986
  Br  2.74881516846711      2.92966853429078      0.39665284158223
  C   5.12069645246938      1.42627217975220     -0.11408135134997
  C   6.05070771526664      2.38677307814461     -0.27747320359552
  C   7.33134362042304      1.73715970091221     -0.53611471862092
  N   7.09642529269629      0.36497200558920     -0.52279998454263
  C   5.77574262572229      0.12820683361377     -0.26898766183637
  N   5.24631796004182     -1.03152331185474     -0.18715618670898
  O   3.88407428823902     -1.02278490840873      0.08398474935836
  N   8.43536952129930      2.36497662844576     -0.72583092661865
  C   9.60953909764124      1.72349718588683     -0.95520793145918
  C   10.86053958309938      2.22813777687447     -1.14301251822290
  N   11.69488831731942      1.16415816495527     -1.33373984016868
  N   11.07002492361156      0.08639511011948     -1.27937137054248
  O   9.71499712289430      0.38572253347712     -1.03698847860305
  H   5.93134335773826      3.45597434958871     -0.23121796815704
  H   7.79886989588208     -0.34301804102975     -0.67121886516547
  H   11.19656466194252      3.24754375268616     -1.15195906269368
