22
Coordinates from ORCA-job 20067optt
  Br  1.04471988807616     -0.18105190146752     -0.13860468400306
  C   2.92478130448600     -0.05561161714883     -0.10186657890705
  C   3.57411629334294      1.16956699491794     -0.08451448536829
  Br  2.60590318970079      2.77693722210028     -0.10830818265967
  C   4.98068759610150      1.18461750322901     -0.06306098370377
  C   5.69808331316745      0.00741203494001     -0.07316128939115
  C   7.17951864704109      0.29235260375944     -0.07785112318079
  N   7.20733906562565      1.73685569447073     -0.16393809131046
  C   5.94506210588504      2.31863623732942     -0.01527979438228
  N   5.66354091308326      3.54137261783067      0.12518689342431
  C   7.84609370843782     -0.22618170997601      1.13240812349736
  N   8.38561852143652     -0.62527264472581      2.06052909737323
  C   5.05579331360579     -1.21921617248192     -0.08609149869604
  C   3.65116106739151     -1.26133940784375     -0.09839949130035
  C   3.17076600430211     -2.61174552816464     -0.11289177402395
  C   4.17722874841874     -3.51262266368198     -0.11138806849652
  S   5.74714235636189     -2.79862123814660     -0.08560645165624
  H   7.66481631283533     -0.17621721533285     -0.94065248440074
  H   8.01889760314109      2.23566457382248      0.16398499894473
  H   6.49726012562965      4.12645181790301      0.14228316764710
  H   2.12492670425319     -2.87636215468424     -0.12189979273742
  H   4.09054321767639     -4.58762504664884     -0.11787750666895
