19
Coordinates from ORCA-job 20070optt
  Br  1.31640089032137      0.29039999894226      0.20894364827527
  C   3.15828002740311      0.01081401247174      0.01797969490978
  C   3.76851900938943     -1.20320759495539      0.11287569718174
  Br  2.79910188037104     -2.77872043795799      0.43737326436148
  C   5.17007668048139     -1.31069269853316     -0.03849298924131
  C   6.04632899172565     -2.35506010572561      0.01654794691321
  C   7.31897046735291     -1.76057751593768     -0.24938879244814
  N   7.30855962588078     -0.46013936447203     -0.45952557014675
  C   5.99193011919842     -0.11150307184943     -0.33493197645653
  N   5.56334385535183      1.10302850765669     -0.46112510889142
  S   4.00860389949691      1.46934178723088     -0.30451518174917
  C   8.61950768333727     -2.47165425831785     -0.32043002536493
  O   8.75052772998298     -3.64775557674446     -0.13258331822062
  C   9.81713790469078     -1.58163658501912     -0.69391581162232
  O   10.32335771858888     -1.61485047081920     -1.77612196152017
  C   10.36289575060155     -0.68659595391487      0.41541855359282
  O   9.97659570836388     -0.79631100604635      1.54064590242429
  H   5.85207171665805     -3.39638804455751      0.21063777813859
  H   11.14179034080370      0.02550837854910      0.09360824986418
