24
Coordinates from ORCA-job 20071optt
  Br  1.22336157564017      0.20118868096371      0.24398775137164
  C   3.09762181540886      0.13923357503628      0.11897223379530
  C   3.85627034367036      1.24832210486210     -0.04041494033628
  Br  2.98992557123949      2.91738314399305     -0.26944012650990
  C   5.31675095137734      1.27611426867044     -0.10629011872339
  C   6.01648779453101      0.14016524816148     -0.30325527154587
  C   7.52827000991274      0.07949829056992     -0.50794523890171
  N   8.13016711445871      1.06109531153947     -1.39006990990604
  C   7.98976761272943      2.46572256736096     -1.03231359477004
  C   6.60651362945680      3.08696697474545     -1.39744107788769
  C   6.03105301972489      2.60652753308836     -0.02889523321923
  C   7.50031723127649      2.56494713159554      0.41367731960331
  O   8.03790286140403      2.78561383318002      1.45149258987184
  S   5.31077466507609     -1.43633750000125     -0.33321428962158
  C   3.64847308652596     -1.22022040139210      0.22832964427039
  N   2.94798333492739     -2.20809600220663      0.59533705516638
  H   7.78683627346947     -0.90892906271960     -0.89112725041821
  H   8.00670237641782      0.15557862106460      0.47340053916951
  H   7.85271305264230      0.90398096799067     -2.35090858886329
  H   8.88288948925698      3.02899194271753     -1.29828556858637
  H   6.12346180409216      2.67576887283837     -2.28156886362865
  H   6.64897241625094      4.17331261864035     -1.45814766530362
  H   5.45111506024129      3.32672282268449      0.53974432134730
  H   3.47466891026922     -3.07955154338321      0.61337628362622
