27
Coordinates from ORCA-job 20073optt
  Br  1.34341644241420      0.85226189234894     -0.56553702738223
  C   3.19893476782211      0.77792566548904     -0.36686121398912
  C   4.00098817027638      1.82741205547918     -0.12887458893606
  Br  3.32043341246762      3.57120949145901      0.03550198274073
  C   5.42417942053913      1.57769464700931     -0.00594849992635
  C   5.90331571233171      0.32888769656788     -0.16070549922347
  C   7.37801394922714      0.01302776862933     -0.10312949222202
  N   8.24879914091148      1.17117758698803     -0.10376827196790
  C   7.73675451096075      2.22804227725500      0.74948732933139
  C   8.69520124013732      3.40978170811382      0.76274758204150
  O   8.68349189654649      4.06591965877488     -0.49352052531673
  C   7.39871250760609      4.51248178542037     -0.80445804281715
  O   6.50086224629040      3.44541392662310     -0.93875932849377
  C   6.36538128119291      2.71942041502188      0.27506103008269
  C   4.99364827194648     -0.79434705853871     -0.37805013283311
  N   5.24883267233634     -2.02387219181306     -0.47733450503850
  O   3.65197208611380     -0.47154854366869     -0.48895328421057
  H   7.63914341742768     -0.61878230075448     -0.95548919711143
  H   7.57540336765217     -0.58371337537117      0.79646097478151
  H   8.34769562783111      1.53788981123672     -1.04545954847095
  H   7.64146848789956      1.83321663201868      1.76627871040065
  H   8.40434703277921      4.11805374006739      1.54937878239329
  H   9.71355827641568      3.07016041966825      0.93843691792877
  H   7.44566438291369      5.01658092586880     -1.76542537094793
  H   7.04103733002671      5.19657316769162     -0.01848483491806
  H   5.92480011019263      3.37336088952290      1.04007478949568
  H   6.24294423774115     -2.20522869110805     -0.38866873539082
