23
Coordinates from ORCA-job 20088optt
  Br  0.90411845924395     -0.29947880465202     -0.03245160621089
  C   2.77084939641220     -0.17204686707572      0.10609924488035
  C   3.44518579581454      1.00607747530707      0.13219308428627
  Br  2.47802728813555      2.59417275951900     -0.18256732754316
  C   4.88702796570853      1.10006772862680      0.25504367355057
  C   5.70934891219464      0.06460993303670     -0.05243956661782
  C   7.21707992672420      0.15715662489096     -0.31825293515500
  N   7.59995042317120      1.13025969457883     -1.31690393572820
  C   7.75889965648321      2.51302916283073     -0.91891468848578
  C   6.49823643166068      3.28293009408384     -0.51209658296929
  S   5.70968942428194      2.56881501176950      0.91536500406857
  O   4.74576230292865      3.48727325908821      1.43868169905524
  O   6.74079532085250      2.08036269592814      1.78988774750541
  S   5.14259268425715     -1.53615917665577     -0.28865598978571
  C   3.41327634388699     -1.48986483765140      0.15546234353155
  O   2.86033619037822     -2.53558116085790      0.34069557418414
  H   7.54745829778451     -0.82655697410843     -0.65817256713999
  H   7.73873430668964      0.37106165323020      0.61281160436305
  H   7.06996401400993      1.02651133049441     -2.17259073534260
  H   8.22045775204093      3.04833933767424     -1.74989766566581
  H   8.45934483595329      2.54294133967884     -0.08329495979889
  H   5.74100971973413      3.32772084457847     -1.29711544664210
  H   6.74585455165337      4.30135887568531     -0.20488596833991
