22
Coordinates from ORCA-job 20083optt
  Br  1.50017328080852      1.26892758815695      1.05783001813444
  C   3.03596273301189      0.30886389161727      0.64181649900684
  C   3.31266562444248     -0.96399609873633      1.04155185517136
  Br  2.07382381593334     -1.89743886937190      2.11293440265371
  C   4.51403049565702     -1.62739492914149      0.63067312779563
  C   4.78122603002965     -3.03395752606060      1.01167573770177
  C   4.85028860782575     -4.01317556171377     -0.06896254066717
  N   4.30118412361182     -4.72324017270702     -0.93536233613369
  C   6.14326449291060     -3.60907627134109      0.47596333891123
  C   6.99162969522190     -2.64356096094345     -0.25253938997197
  N   6.65519251441905     -1.46405838769105     -0.58232529488265
  C   5.41165205229703     -0.96535687539994     -0.17065745335727
  C   5.12208137783254      0.36353443444415     -0.56951833336399
  C   5.72358123096398      1.35250984375926     -1.32402357304659
  N   4.91553692922226      2.42631095943065     -1.32297219088726
  N   3.84795018636493      2.20219881462184     -0.62517333094992
  N   3.95212817098474      0.94649407513743     -0.15308882919257
  H   4.45118884224448     -3.36339681262900      1.98826650664377
  H   3.28371497734563     -4.62780403999662     -0.89255397950586
  H   6.65949384067221     -4.33168930251033      1.09670866094366
  H   8.00034365848844     -2.96162678842969     -0.50450827684191
  H   6.66288731971166      1.32793298950475     -1.84573461816156
