22
Coordinates from ORCA-job 20085optt
  Br  3.40745521247980     -2.09562366673535      1.61846907419422
  C   3.37472909735203     -0.42671537775631      0.73401881349505
  C   4.47829019943788      0.51469358041266      0.93342232390969
  Br  5.57405295158689      0.38718059530360      2.44267903874081
  C   4.54372570608842      1.52813164799043      0.04466453682964
  C   5.41521649679638      2.71339770482093      0.04597784286793
  C   4.90833756557000      3.93853788238971     -0.24864103367487
  N   3.59506696165281      4.16317611973146     -0.59818129996416
  C   3.18836888404529      3.86191517565793     -1.75381947576898
  C   1.75129167794318      3.74371104565525     -2.11220520101955
  N   0.98327889574100      2.77415737680287     -1.82998793165956
  C   1.24553625131509      1.61300334852958     -1.10748278116272
  C   2.38396100440122      1.03051183644298     -0.68187780340717
  O   3.62876299014793      1.52751331146322     -0.97744515292196
  N   2.36185479612658     -0.15757617928846      0.01780962562911
  C   6.77346774189522      2.63130647866644      0.48042411479106
  C   7.92112542940119      2.61763821666096      0.82610863209649
  H   5.53227325882882      4.81156308507861     -0.09010265714070
  H   3.89165190476723      3.59025426232605     -2.54872771045361
  H   1.33741366285757      4.53116057004267     -2.74252641937397
  H   0.36109429069874      1.02587439115116     -0.90090821653412
  H   8.93104502086665      2.59318859465359      1.15933168052737
