23
Coordinates from ORCA-job 20087optt
  Br  1.02105944978417      0.29228389754626     -0.83711972699071
  C   2.82583534353411      0.02134322104526     -0.43829998283453
  C   3.42364777126695     -1.19196473704740     -0.39777074922056
  Br  2.48760296861292     -2.77763836096078     -0.71894603359848
  C   4.83162992648483     -1.30079746732898     -0.09061444443940
  C   5.48797986510921     -0.15607566737368      0.16996617063415
  C   6.93520559993854     -0.10783192322393      0.53722033704423
  N   7.47588989217591     -1.44869727978538      0.40621080299387
  C   6.71541704435969     -2.54534976706919      0.16743217315509
  C   7.43628184799975     -3.86989373300351      0.14789869840305
  O   7.80413018640233     -4.31017912635573      1.46568529271687
  C   8.94050956774422     -3.85362392873989      1.97499313508530
  O   9.66397473954683     -3.04439650522588      1.46444148500339
  N   5.45604912839490     -2.55090470402949     -0.07176560594748
  O   4.91372007334769      1.05452681125787      0.14623237647762
  C   3.58067186435477      1.24601140324208     -0.15932908409538
  O   3.15954687889161      2.36048282095324     -0.16628400194492
  H   7.04402661157344      0.27696701976878      1.55844042503146
  H   7.45610012072245      0.58921894750622     -0.12656589985634
  H   8.45508738397881     -1.59905864158336      0.60315689662308
  H   8.33120594149214     -3.81898000175154     -0.47367634353078
  H   6.74533091880665     -4.61654966513414     -0.22630679569107
  H   9.12809687547797     -4.32589261270680      2.94500087498154
