24
Coordinates from ORCA-job 20095optt
  Br  1.78792014216843     -0.78755263522216      1.04966186950237
  C   3.55284151221546     -0.52252788125837      0.50792620570708
  C   4.40705165872349     -1.51589421387788      0.14360205081839
  Br  3.89519901464849     -3.31882475539478      0.16137132671480
  C   5.75770996830151     -1.21543546272983     -0.26591408574398
  C   6.21970005577596      0.06399556856664     -0.26797620672937
  C   7.61944034566984      0.52359592262458     -0.60356182243349
  N   8.58522982762211     -0.55328463567817     -0.80061005699021
  C   8.57581812027388     -1.45624113715700      0.30353337419340
  N   9.25159997828569     -1.31192590563607      1.35319311391316
  C   7.60621613574853     -2.61323895713956      0.17070894944594
  O   6.53385948496165     -2.25484692287986     -0.69367266201766
  N   5.33353903622144      1.05131257936209      0.10532999336796
  C   5.46012080991683      2.41166930360215      0.18589561935198
  N   4.33164212438905      2.93821996218223      0.57728975467449
  N   3.42804598008987      1.95263119646329      0.76754133199003
  C   4.02697109695396      0.81793086736041      0.48208338471564
  H   7.96938272519287      1.15804855733884      0.21612778537749
  H   7.59835785058655      1.14763111322649     -1.50086694278796
  H   8.33148106113862     -1.05519469774926     -1.64548725571141
  H   9.88095446427664     -0.51243354822613      1.26728060614229
  H   7.24408806235626     -2.90607630906699      1.15746653878836
  H   8.08988158928432     -3.46904516547751     -0.30114137121884
  H   6.36094895519846      2.95048715676684     -0.05078150107047
