22
Coordinates from ORCA-job 20091optt
  Br  0.98800310405582     -0.13576213329028     -0.05525321764479
  C   2.85816526132996      0.05976231823160     -0.04984010735933
  C   3.51426204389785      1.28339456261650     -0.05044266548474
  Br  2.52114076282838      2.87578609176775     -0.05952887560959
  C   4.92462957283140      1.31206208825241     -0.04548023289844
  C   5.67148195853279      0.13205703702470     -0.04284864548664
  C   7.11843806798114      0.39865950183805     -0.04035582188446
  N   8.10764224291017     -0.38509998075939     -0.03944798033267
  C   7.24872671444875      1.89239197293258     -0.03961649412683
  N   8.28975861981809      2.59511642217811     -0.03794598846717
  C   5.85628716088884      2.47335502132541     -0.04129292396629
  N   5.56884604135779      3.70050969100895     -0.03789843046939
  C   5.02224745921100     -1.09653734803715     -0.04288117497609
  C   3.62322591523112     -1.10506524411500     -0.04546046365841
  N   3.28063144589764     -2.42978883912376     -0.04386574460050
  C   4.45055269357111     -3.13751790514392     -0.04087938261511
  N   5.51153944888792     -2.38440628765917     -0.04016111882458
  H   7.80570409205280     -1.36135458662336     -0.04033962787893
  H   9.11625207690877      1.98954377251296     -0.03713940550436
  H   6.44253579033109      4.23697523844163     -0.03415450381855
  H   2.34284548152866     -2.79750003696711     -0.04487119764732
  H   4.45408404549889     -4.21658135641150     -0.03929599674580
