24
Coordinates from ORCA-job 20096optt
  Br  1.80068075699070     -1.61920049787723      1.72263513187615
  C   3.42958201766174     -1.30981969805113      0.81199419428682
  C   4.33068072306401     -2.35385832727331      0.62075630534511
  Br  3.95265059610358     -4.09845557172194      1.23404497324768
  C   5.54248073862865     -2.12709457404163     -0.05167021401448
  C   5.82196671634641     -0.86252648116695     -0.57012199659888
  C   7.09891492842006     -0.61043665392973     -1.31928754563336
  N   8.13168612170900     -0.13553970681859     -0.41101193938292
  C   8.65263384919223     -0.92659297324663      0.41425292481016
  N   8.46924928654324     -2.29066870099843      0.66857512682458
  C   7.72574756441335     -3.36181335508569      0.15550394613242
  O   8.21370485155881     -4.46649462559001      0.17105893847432
  N   6.42801700485747     -3.19111094832108     -0.27477658387711
  C   4.92404750351880      0.16443271565642     -0.35048471332402
  C   3.73572889516549     -0.03353043318472      0.33917567005983
  C   2.84075422443089      1.14892541956034      0.51402952583812
  O   3.12858827646817      2.23900449592723      0.10031994836089
  H   7.41632202033142     -1.51675371836936     -1.84363149150862
  H   6.92966186158099      0.16589639009210     -2.06315388561444
  H   9.42194216986605     -0.53229839282730      1.07483316290294
  H   9.25608495853930     -2.69167294030569      1.16067859484286
  H   6.00431005510821     -4.09989010871325     -0.40778964889200
  H   5.12458682697723      1.15900363380579     -0.73066660588149
  H   1.89397805252414      0.97549505248082      1.04473618172544
