29
Coordinates from ORCA-job 20101optt
  Br  2.66280312353855     -0.09612153601237      2.58261593169240
  C   4.06611649411585     -0.30634784895545      1.35708357956425
  C   5.30329401241658      0.22231654312485      1.49680525252610
  Br  5.73329196821863      1.26128436641174      3.01107632937971
  C   6.29456625433597     -0.05232229232427      0.47969312932707
  C   5.98202003997712     -0.84343419647117     -0.58836909021605
  C   7.03145982496140     -1.27460989824461     -1.59396233182553
  N   8.19090749237377     -1.83689976979057     -0.92702267290484
  C   9.41407344270212     -1.23527899254811     -0.98945235018342
  N   9.78288400590843     -0.51164797518959     -1.95866576207852
  O   10.15649521215440     -1.48380041334049      0.13957491402964
  C   10.02335621919400     -0.44126652105936      1.11632438047844
  C   8.59799660386283     -0.21641143950015      1.61316640489830
  C   7.66930788746153      0.55445340733193      0.63629390523719
  C   4.61342876931855     -1.32686286771101     -0.79081010431915
  N   4.08361443858100     -1.94628660072804     -1.77367056826777
  N   3.75473139418970     -1.05069178114890      0.27315190700707
  H   7.38620239430860     -0.43940811246708     -2.20079330985492
  H   6.61256723633012     -2.00735379101056     -2.28139807848381
  H   8.02214676820252     -2.35802301624823     -0.08255486411531
  H   10.71302403567844     -0.14167453176490     -1.78778399506717
  H   10.65720638304292     -0.75817702068723      1.94218752718352
  H   10.43365367857344      0.48647464870362      0.70235003022226
  H   8.66960033277404      0.34203025832249      2.54800023753672
  H   8.16298923539310     -1.18309833582861      1.87779859900312
  H   8.13138971229627      0.65132450338618     -0.34384846823305
  H   7.54261119280459      1.57189564695766      1.00604740673612
  H   4.73630114110505     -2.12196580174738     -2.52581159947584
  H   2.81196070618036     -1.39509663146039      0.15497366020345
