19
Coordinates from ORCA-job 20118optt
  Br  1.11312604350755      0.30754881533505      0.03955488437388
  C   2.97196269368459      0.14533624851443      0.03939094515502
  C   3.61470012059556     -1.05253043035386      0.03941786076498
  Br  2.74154964253943     -2.71010684168411      0.03963083722617
  C   5.03819569435687     -1.05950077140107      0.03928988603108
  C   5.78684971382387      0.10171183008272      0.03915065407530
  C   7.13262382648697     -0.30633283874822      0.03898274814816
  N   7.19417282662840     -1.62848300292396      0.03923260502010
  N   5.93937292037089     -2.06861261266099      0.03921039327291
  N   5.12691244787390      1.30575789248085      0.03913935770699
  C   5.54873618984001      2.61149323786931      0.03898815113278
  N   6.67738729021898      3.26356340102758      0.03885161948044
  S   6.21338471302220      4.83761380146225      0.03875424974260
  N   4.59784433998390      4.68462129604419      0.03887027912593
  C   4.35512755933908      3.39080309998608      0.03900278450157
  N   3.23844280578678      2.59955531024337      0.03913686741694
  C   3.72195965634630      1.38092929187867      0.03923155729647
  H   8.02702247313746      0.29325867049319      0.03886462912569
  H   5.74862904245722     -3.05762639764546      0.03929969040298
