23
Coordinates from ORCA-job 20115optt
  Br  1.16264912165996     -0.42779282705170     -0.11805931822328
  C   2.99383713273986     -0.05615183979094     -0.14207892014934
  C   3.51743741534184      1.18698899164955     -0.05689535566135
  Br  2.43712835908394      2.67935000424478      0.27118791509147
  C   4.95523712088844      1.23106460697527     -0.08417541082358
  C   5.70662700076671      0.06518749232706     -0.08030278630320
  C   7.05293726453599      0.47743342115536      0.02000387958186
  N   7.13275679187050      1.78139752630192      0.06444120655589
  N   5.85430051460836      2.24201362026341     -0.01211486000224
  C   5.69416476078731      3.63171429061902     -0.18843645014847
  N   4.92132038107056      4.14310690582620     -1.04612647939493
  C   5.02120950028312      5.59184980618445     -0.81742194626971
  C   6.31137197705027      5.78276069599143      0.00726522425941
  N   6.42254435904870      4.46281016050020      0.63591342563012
  C   5.10875936943051     -1.23787137867166     -0.15980841823170
  O   5.62523282946621     -2.30885929874767     -0.18036294704292
  O   3.70855745393493     -1.18257961067834     -0.23919206305416
  H   7.93958591206900     -0.13433833598224      0.05564747968120
  H   4.14178972676696      5.91024408362866     -0.24950267038159
  H   5.02987708150049      6.13231398260881     -1.76112459686355
  H   6.22848369134367      6.57181713162516      0.75089119830577
  H   7.17026201167773      5.98331153166014     -0.63924228284831
  H   7.32893022407488      4.12222903936110      0.92449417629260
