24
Coordinates from ORCA-job 20126optt
  Br  3.25500717826746      0.90841244563429     -2.38554796321641
  C   4.34113759798480      1.02409103324116     -0.84729974757865
  C   3.85156391814955      1.25726887450416      0.37878269823641
  Br  2.04351600601769      1.49711159942376      0.81113846798114
  C   4.90466572826080      1.38172792230545      1.40888414721140
  C   5.36985209547857      2.56442702736473      1.79643279805348
  C   6.83836880953696      2.75804142436815      2.04500768384119
  N   7.51014270854331      2.73223253470449      3.10368545260455
  N   7.44171204987897      2.94564646760689      0.77042426362617
  C   8.42481243825906      2.11625061049548      0.23165836947608
  O   9.15041192105443      1.42805400873392      0.89797924054604
  C   8.52309979591698      2.18270774494882     -1.26567744993462
  C   7.68152547730481      1.76380625861124     -2.22461098490440
  N   6.43381942649827      1.16874555567461     -2.18728514887944
  C   5.77427032843300      0.71939062411933     -1.03487062977292
  C   6.45019445028023      0.02891290807292     -0.10063710058339
  S   5.88706936476169     -0.09077117576094      1.54474193990170
  H   4.77283042062921      3.45289434326097      1.60051060657131
  H   6.90927951984186      2.53239541456944      3.90100766537091
  H   6.82279997610899      3.31709240725652      0.06339686807438
  H   9.48214445555101      2.54334855060634     -1.61261827797597
  H   8.01915308525150      1.89171005373889     -3.24671783151527
  H   5.93367384619029      1.11440657017045     -3.05991895532438
  H   7.45494940180048     -0.33190320365107     -0.28546611180930
