23
Coordinates from ORCA-job 20139optt
  Br  1.01726532559590      0.37087882596802      0.23053362685551
  C   2.89289743254034      0.25419262630048      0.17362486939959
  C   3.71462672360210      1.29638666341143      0.40963116232499
  Br  2.94817841403620      2.99267218612144      0.79671733215262
  C   5.16137850565049      1.20385481590598      0.27552483270552
  C   5.81678091912177      0.05603860400479     -0.03973723476207
  C   5.17287802467710     -1.27634473130967     -0.05390785159859
  N   5.69180441183205     -2.42364073534715     -0.01293930113387
  S   3.40022480052759     -1.33900007074413     -0.22652609744184
  C   7.28439290742517      0.04609921661879     -0.40185798992074
  O   8.01017252881741     -0.84709443721448     -0.04508972471789
  C   7.81805895139032      1.12264877894721     -1.34134984734852
  C   7.62199816719718      2.49858527072463     -0.70622891340542
  C   6.25050930730841      3.16177371822208     -0.91022537181961
  C   5.93951878563112      2.49684549100259      0.44477413606142
  O   7.33045444407775      2.30017619204974      0.69623361851095
  H   6.70792935178792     -2.37289393203544      0.04454278996276
  H   7.31111464872139      1.05073350931720     -2.30654978338480
  H   8.87332076652306      0.89949188431060     -1.48690289898888
  H   8.49404338623552      3.13483128830867     -0.84481375839395
  H   5.65559071686573      2.85468159618584     -1.76704143633746
  H   6.29485052996405      4.24541085780855     -0.84017026210797
  H   5.49201095047131      3.11167238144281      1.21875810338826
