22
Coordinates from ORCA-job 20133optt
  Br  0.94163572712814      0.32589473792991      0.42836601945331
  C   2.80428316265495      0.19567024620107      0.20087699449763
  C   3.57674662897297      1.32993271293617      0.01337627655469
  Br  2.91666631656466      3.07870371301834     -0.02127431129430
  C   4.94336534440340      1.11050873516457     -0.14851922863577
  C   5.52390174336582     -0.14813326832456     -0.13132381399091
  C   6.91252828882499      0.13748676909506     -0.32551110455546
  N   7.11301234569817      1.40799842417957     -0.44476419674352
  O   5.88682237302346      2.04027206716267     -0.33807871632153
  C   4.71979308924253     -1.26859665513700      0.06968890902165
  O   5.33357228502523     -2.49123010149303      0.16908072964021
  C   4.96459642985043     -3.52085042496896     -0.65611712810166
  N   4.13407814725556     -3.53281280025489     -1.59450349338299
  N   5.68778701075900     -4.65177242126073     -0.32869199002359
  C   6.65383146386357     -4.78321010306575      0.64655155806879
  O   7.27057533922386     -5.79980555593931      0.80602328670376
  C   3.36582264472932     -1.09471893592268      0.23809925941418
  H   7.74969292928406     -0.54031721688174     -0.37818087087705
  H   3.68194403625423     -2.63913907666520     -1.75342296158509
  H   5.51605474535425     -5.45573189843011     -0.91731930561748
  H   6.79649697359202     -3.88145012000329      1.25133602732517
  H   2.72479297492926     -1.94769882734007      0.41230806044997
