22
Coordinates from ORCA-job 20136optt
  Br  1.16588034530525     -0.33762221010120      0.00930857049546
  C   3.04145073313108     -0.12575834080462      0.01130243139359
  C   3.61103650190276      1.11648886804656      0.01153907494333
  Br  2.60720783861959      2.70363861503841      0.00932365971829
  C   5.04933161044358      1.22995171801959      0.01340990249039
  C   5.80522787530077      2.36355512075660      0.01448364298117
  C   7.24584392366684      2.31209189990075      0.01630715568517
  N   8.11789507524974      3.21787589787091      0.01825370879485
  O   7.83037042128884      1.00668067718632      0.01589412322404
  C   7.08952448295444     -0.06825872609536      0.01508514167366
  C   5.71939046918068     -0.03350897547897      0.01405069511292
  C   5.00209440584932     -1.24553929024070      0.01339024770393
  N   5.73652256940347     -2.41125728801741      0.01390210155327
  C   7.11859551457454     -2.48885800824164      0.01443774232803
  N   7.84578688842303     -3.52167277208636      0.01433953977246
  N   7.75084748619925     -1.24025670635391      0.01523560468275
  N   3.70450894179333     -1.31520735536254      0.01228388820171
  H   5.35570054244142      3.34419771503911      0.01419295922260
  H   7.68018708879990      4.13401845559970      0.01848137996025
  H   5.21076838972896     -3.27339635075002      0.01332563455667
  H   7.31189451109283     -4.38405544141274      0.01368562283398
  H   8.76193438465036     -1.25510750251250      0.01576717267148
