22
Coordinates from ORCA-job 20148optt
  Br  1.10735018982123     -0.13418927494496     -0.11270045592593
  C   2.99329980254590     -0.05415364668818     -0.03415049108813
  C   3.66819717469302      1.17508280739458     -0.08988328141154
  Br  2.77355484621646      2.80390392350731     -0.26134348036618
  C   5.05176982323281      1.09761951233318     -0.02348283275486
  C   5.67678889890448     -0.12941951350219      0.08459252771173
  C   7.17092259576698      0.08131632202463      0.09539415681110
  O   7.31693790963477      1.49977395549026     -0.01069514508573
  C   6.10770292934656      2.13828336490307     -0.07369186939922
  N   5.95773450992196      3.37820299638341     -0.15174355684024
  C   7.83310719185646     -0.60498239087825     -1.01530159055737
  C   8.35040976608652     -1.19203044699941     -1.92015673091366
  C   4.92257631236445     -1.28772908543922      0.12153005389901
  C   5.52717163859262     -2.67092208400798      0.17839685152145
  C   6.58434086490437     -2.77063402977698      1.18300253337170
  N   7.41628450326233     -2.80496251259867      1.96951742169946
  N   3.59800215567749     -1.21930881936971      0.06777629248327
  H   7.61897054036550     -0.24212727147701      1.03874653748778
  H   6.85742095866029      3.85708339682242     -0.16905476494775
  H   8.82645123140566     -1.69953645655345     -2.72578632480665
  H   5.96047852849691     -2.92429685020364     -0.79303093840351
  H   4.73852762824315     -3.38797389641920      0.40106508751529
