21
Coordinates from ORCA-job 20141optt
  Br  1.28461102500298     -0.66487773793695      0.41762759898531
  C   3.13999932856211     -0.37806318554815      0.19053216135044
  C   3.63121903214982      0.89125707376812     -0.06192858913376
  Br  2.57270220016682      2.42697900456553     -0.24459999746539
  C   5.01675964179161      0.99511016463255     -0.20051882536859
  C   5.82554076702396     -0.13949040753882     -0.09667760616094
  C   7.20109542642356      0.21601717730526     -0.28306954249531
  N   7.42695666542660      1.47268473467251     -0.50244340459738
  S   6.01715213994554      2.35272342115696     -0.50985013951552
  C   5.20839658437135     -1.37533026520020      0.14948240147970
  N   6.02013096050904     -2.51161999281354      0.20853946951410
  C   5.55872587805176     -3.53223426058844      0.78073672566567
  O   6.28566622905770     -4.65826695761954      0.78632474578388
  C   5.73426492919037     -5.75046187794051      1.49338186528522
  C   5.78262902979933     -5.54184617703229      2.94888224711461
  N   5.81056960905185     -5.36903438638542      4.07984372492079
  N   3.89842541159278     -1.46589974958048      0.28586129713051
  H   8.02272918140030     -0.48736223696184     -0.25204719432093
  H   4.58708375602881     -3.58010809748295      1.27977432583127
  H   6.33382452296456     -6.61972665739293      1.23330068472677
  H   4.69951768148908     -5.93544958607889      1.19584805126955
