22
Coordinates from ORCA-job 20146optt
  Br  4.42714872053183      0.03540950880519      0.21558865776518
  C   5.69380591350052     -0.87571472879599      1.23754829155969
  C   5.72806490744806     -0.82005818515735      2.60902100393666
  Br  4.51270551452963      0.21593458730792      3.61832886179101
  C   6.98642385191195     -1.33562243992044      3.09183862643972
  C   7.19984396007183     -2.51955740757399      2.36796758016443
  C   7.60686882840996     -2.29296246631975      0.96944980157336
  O   6.60195001204355     -1.45458558857796      0.41688121500570
  N   8.46458676499954     -2.70413478188341      0.16275642728744
  C   9.49150951116729     -3.53646404723169      0.63609217624960
  N   9.80041109234541     -4.57568383260850     -0.00002771803531
  N   10.10549098911490     -3.16028487799901      1.87298265111663
  C   9.95557520746289     -1.89047043714522      2.36537684667387
  O   9.95181831585330     -0.88496090718749      1.72926684509564
  O   9.79205597676710     -1.91995370574357      3.73411380470662
  C   9.11378338213876     -0.86559767687977      4.26740238459609
  C   7.86266754273292     -0.54457617281467      3.90753791587902
  H   6.25432555189177     -3.05673701699099      2.26338186320682
  H   10.58198667910124     -5.05820667979015      0.43755951368760
  H   10.11883244110687     -3.89132768628488      2.56972048344189
  H   9.66042555701535     -0.33322150211487      5.03398169625167
  H   7.43071927985521      0.33277604490662      4.37223107160664
