24
Coordinates from ORCA-job 20149optt
  Br  0.94217103006244      0.04071591688686     -0.17176621166546
  C   2.82015575523494     -0.02616961144944     -0.03031774369254
  C   3.51513704341318     -1.23657312211594      0.02735559819825
  Br  2.62317683428609     -2.88522148077153     -0.00821714195294
  C   4.90341714741910     -1.18746638257526      0.11423177142277
  C   5.59677141922538      0.01062261459254      0.12827176287856
  C   7.06185987184126     -0.28814813536890      0.23816836777089
  O   7.13459290020608     -1.70937590647406      0.26832803057568
  C   5.90513778011177     -2.28933185669310      0.20633677008984
  O   5.75179828704375     -3.46783735898385      0.22668855808818
  C   4.90333196654665      1.20043065478977      0.06604277293715
  C   3.51574098238152      1.17868458804682      0.00474440590967
  C   2.96445519772931      2.57827610439781     -0.04086061383161
  C   4.15235482426318      3.43924264694252      0.42125775688912
  C   5.40158717808743      2.62845403090533      0.00219620181043
  C   6.58261864133073      2.87307774070898      0.82649300992772
  N   7.51418439317594      3.03990274026025      1.47270942932569
  H   7.50205642498678      0.11414591260528      1.15218906979017
  H   7.63490399194406      0.07751339872537     -0.61602743453180
  H   2.08601948115589      2.69817017814905      0.59120362122077
  H   2.65936340530178      2.82001116644603     -1.06337408715466
  H   4.14236576975543      3.52297176666545      1.50813168066243
  H   4.15333334490547      4.44197277362651      0.00102943894896
  H   5.67446632959180      2.86593162068352     -1.03181501361725
