23
Coordinates from ORCA-job 20144optt
  Br  1.01498583032337     -0.20269524497369     -0.03232421593503
  C   2.88406375320158     -0.04510382121710      0.04634076548534
  C   3.58556455258012      1.14105152455498      0.07127513608847
  Br  2.62811562062124      2.76765771132779      0.00949380769153
  C   5.01437527102488      1.19008816256479      0.12328292930213
  C   5.74581431456903      0.01666508597706      0.12355860621739
  C   7.25379570114860     -0.05828537191498      0.16452941301346
  N   7.91936653961003      1.14782221072027     -0.30829857017730
  S   7.43281613354615      2.50991667460636      0.45584883494868
  O   7.61195447783163      2.28155851640583      1.85453053373605
  O   8.03483413335514      3.61765784232088     -0.21403056125523
  C   5.67435364831985      2.55347022217256      0.15005349907521
  C   5.02984753853919     -1.18708987516203      0.09560667687570
  C   3.64276742820239     -1.21455567705779      0.06357723624620
  N   3.34974616803231     -2.53439977672754      0.03062831563054
  N   4.47630294604230     -3.26563097410714      0.03835003665639
  N   5.48441837143403     -2.48335045212588      0.07635260262338
  H   7.59044832189014     -0.90243401811960     -0.43492074886401
  H   7.57973267558683     -0.24184589027715      1.18974592381476
  H   7.94389712774502      1.27300037675242     -1.31371711143811
  H   5.52937733562070      3.08451440404141     -0.79173902109383
  H   5.26148762095448      3.16987690732233      0.94976183480916
  H   2.45093448982095     -2.98888853708379      0.00009407654911
