24
Coordinates from ORCA-job 20143optt
  Br  1.18926810208643     -0.21649675069056     -0.05327699208631
  C   3.07057101091164     -0.10529035942208      0.01661466305832
  C   3.74147043861676      1.09920590550018     -0.10722576071626
  Br  2.81988320306717      2.72308519761623     -0.32380267321664
  C   5.14961411247977      1.10002227044246     -0.05918359041528
  C   5.85416850205785     -0.11092180832684      0.04874622375484
  C   7.32389984537001     -0.12658571313148     -0.09989886091081
  N   8.05590516636537     -1.02264626187620     -0.60880121904509
  S   8.19185268955635      1.29156911708070      0.52345211129547
  C   6.98595625673629      2.50315238060118      0.20060441217775
  N   5.76407384042073      2.34749602031060     -0.09809631560837
  C   5.14707313692072     -1.32094992999683      0.24786970147114
  N   5.81099339668956     -2.50756586330497      0.46139869915833
  C   5.13163840870865     -3.69545911790045      0.87925441817931
  C   6.13516582452378     -4.74646974897323      1.27794803125085
  O   7.31573083253838     -4.54623989303301      1.30621774986491
  C   3.75642989287485     -1.29402176560744      0.21875689470961
  H   7.50957906236580     -1.80736363150435     -0.96281082138501
  H   7.38296214278198      3.51388939975488      0.25722955133737
  H   6.77349058800247     -2.46656394999357      0.77056763359295
  H   4.50533661021394     -4.11460229523356      0.08222773854982
  H   4.46645873687903     -3.53841101699238      1.74340228387180
  H   5.70906296634752     -5.72484365433075      1.55958399338082
  H   3.18541523348489     -2.20098853098851      0.34322212773049
