22
Coordinates from ORCA-job 20145optt
  Br  2.74756817620810      1.17267503925114     -1.36414611906403
  C   4.48611835122177      0.69657139040540     -1.85096734474116
  C   5.12695472720897     -0.41506848198815     -1.45171351938646
  Br  4.28370386261919     -1.75172157944976     -0.44145604936996
  C   6.46888585606460     -0.58895339893675     -2.01705347983037
  C   6.44982475363143     -0.12869181194977     -3.45925932822485
  C   6.19173006270733      1.33159753108613     -3.35436895203410
  O   5.04181061327915      1.64651273767585     -2.64043899817927
  C   6.88116356021582      2.35375481038317     -3.86538954203083
  N   7.97106930601754      2.32011503049300     -4.72634299533235
  C   9.09038111444713      1.76635667854783     -4.52849045017308
  N   9.50422486539098      1.07551654381137     -3.39598984774947
  C   9.14121786894492      0.14869253789299     -2.72218071839499
  N   8.86279422218157     -0.80292901281938     -2.01473456096755
  C   7.60745386189889     -0.89075342908277     -1.36833838244687
  C   7.73889047980158     -1.30121581054959      0.05522093867067
  O   6.94014410009480     -1.04839856458717      0.91176287030786
  H   5.61679202133852     -0.61612787187050     -3.97203965579051
  H   6.47145213874345      3.34660015712155     -3.71295444948989
  H   9.87343398315950      1.89335745882439     -5.26822403295602
  H   7.35414321996625     -0.33292884999559     -4.02130614523066
  H   8.67924285485828     -1.83896110426339      0.27041076241398
