21
Coordinates from ORCA-job 20150optt
  Br  1.18210730348207      0.16070713301644     -0.60416243868931
  C   2.98426009239165      0.06978295308047     -0.10695261329161
  C   3.61110496244734     -1.13828835400773     -0.03114871459282
  Br  2.70651082746013     -2.76782264972681     -0.19695042130055
  C   5.02737005549968     -1.13707468361174      0.08288345286830
  C   5.72683913972334      0.00776448778734      0.00971757063365
  C   7.18753027842175     -0.27964445678764      0.05404380215559
  O   7.25028265071879     -1.69679573481681      0.18210182346296
  C   6.01319820720614     -2.25848698027904      0.21202539417078
  O   5.82858772365981     -3.42452033523978      0.33101860820318
  C   5.09675337473955      1.27891168209327     -0.06448683924112
  N   5.82489735680510      2.35621986352982     -0.14600705391388
  C   5.17563131125158      3.54402737409059     -0.15212962736532
  C   3.84574905740164      3.67278984285102      0.07265550877237
  C   3.03201678417316      2.52315007316375      0.35120611030916
  O   1.92947442324644      2.51947849262123      0.82569331117309
  N   3.70379570669238      1.26475279052840      0.01101856139869
  H   7.68181039141172      0.18696879519071      0.90686133226938
  H   7.69760127266037      0.02786420398480     -0.85993775931665
  H   5.79842273097481      4.41715599578260     -0.30550002891539
  H   3.36405634963248      4.63505950674911      0.16005002120950
