28
Coordinates from ORCA-job 20153optt
  Br  1.00779201035166     -0.27962838960338     -1.03740762021044
  C   2.82751192248940     -0.35451891686069     -0.58190877482247
  C   3.41986062005574      0.60730466215519      0.24244110700138
  Br  2.43632031684990      2.04226933919241      0.97018920263979
  C   4.76573447484225      0.52858063370354      0.54429935636588
  C   5.56849795179220     -0.52486431326099      0.03808542043435
  C   7.08688291987705     -0.74458335788187      0.38694072587351
  O   7.95904283822181      0.29896408956883      0.84249536008175
  C   7.70353017806582      0.94104207241757      2.12626200965878
  C   7.57883130123650      2.50503045044355      2.00506915747627
  C   6.03924087391959      2.82816998237360      1.78079259897047
  C   5.67910827407048      1.40955281719979      1.33665026283138
  C   6.29065025399314      0.60476375815991      2.50561672860314
  C   4.97800924784068     -1.46545231961998     -0.77566749539269
  C   3.61526698095661     -1.38742570008689     -1.08749008857569
  C   3.05927485197198     -2.38792258416253     -1.95052293777588
  N   2.65424220198669     -3.20666962313049     -2.64454304050835
  H   7.56144832203304     -1.08383861032385     -0.53319981724018
  H   7.12045448412372     -1.58388425034983      1.08884899908322
  H   8.49708052315123      0.63618086405808      2.80723428692218
  H   8.17219609728273      2.86082034869847      1.16275216418623
  H   7.96743404944881      2.96751135387768      2.91208024937975
  H   5.89890678156890      3.58032404388405      1.00760200424417
  H   5.54539529510686      3.16007922690349      2.69379898819210
  H   6.43410341817128      1.39966725320131      0.56351628856370
  H   6.05512937305607     -0.45484061493547      2.53131191743115
  H   6.00334715814103      1.04025688317179      3.46332480763163
  H   5.55570727939475     -2.27888909879330     -1.19857186104511
