25
Coordinates from ORCA-job 20152optt
  Br  1.27401643641690      0.10026718261234      0.01717135096561
  C   3.16183204627513     -0.00793102794524     -0.06622457314135
  C   3.81843176244248     -1.23954367752021     -0.15337416286267
  Br  2.85296387979044     -2.84888691958637     -0.33022133925389
  C   5.21045504580958     -1.24400057050092     -0.13606203777054
  C   5.88165730630181     -0.00896504486792     -0.12051351560301
  C   7.38426277254849      0.00935654240888     -0.17221689788931
  O   8.02898207122163      1.02589243909824     -0.15734567009508
  C   8.03765498754011     -1.35669873996446     -0.31096548150778
  C   7.31759633970297     -2.34168885568840      0.59882688642322
  C   6.01411784228389     -2.51734302871177     -0.18507203035608
  C   6.55588831374300     -2.71689482657029     -1.61424689036967
  N   7.77976754777348     -1.90591632562154     -1.64905591416715
  C   5.12125124788068      1.16767925368286     -0.07255060035637
  N   3.78592315188845      1.14065489025524     -0.02688915794478
  C   5.69066448947449      2.48263687865728     -0.06881922458868
  C   6.08754957133032      3.61175077803835     -0.06546525354699
  H   9.10379462959878     -1.25056395716317     -0.11795093298227
  H   7.16623431900656     -1.95839229519247      1.60759081655630
  H   7.86226225389114     -3.28450229169922      0.65073173644630
  H   5.41947970545859     -3.36023187922387      0.15233786127961
  H   5.83650416351086     -2.41316097987208     -2.37561832225727
  H   6.79168721866317     -3.77187435119553     -1.77135300495810
  H   7.78539945198745     -1.20385000578177     -2.37552995327406
  H   6.46262344545947      4.60720681235208     -0.06318368874599
