19
Coordinates from ORCA-job 20157optt
  Br  1.40944343009529      0.79411350865530     -0.00207978206430
  C   3.21151262478174      0.34430881110455      0.02296629908025
  C   3.69242357264725     -0.90643842465037      0.12654188205156
  Br  2.61129034534635     -2.42028015961023      0.29698196835168
  C   5.11735306444141     -1.08406528421115      0.08263396867844
  C   5.88479155399918     -2.18931721020535      0.09705497215941
  C   7.28056755670893     -1.76952914053809      0.01454450137044
  O   8.29086332353056     -2.40893994474057     -0.00155965905717
  C   7.24185244240530     -0.22448534812755     -0.05629356890599
  N   8.27581153046869      0.47999318301170     -0.14731678302266
  C   8.34027260648965      1.88947510829965     -0.17174308506400
  O   9.36979469409818      2.43202024329794     -0.45371703270684
  N   7.26287039609076      2.67891705647755      0.23990017099100
  N   5.91795956926320      2.48704541281089      0.09399187024751
  C   5.35184488459172      1.37836283174408      0.01546914927368
  O   3.97893523060835      1.43932513200950     -0.08888526603487
  N   5.88635283329004      0.10056180032636     -0.00732469127744
  H   5.53424016497710     -3.20503621203838      0.15219463859680
  H   7.48882017616626      3.65896863638418      0.15664044733249
