24
Coordinates from ORCA-job 20164optt
  Br  1.14120754609689     -0.15348287011696     -0.09148344469373
  C   3.01901038178651     -0.06033772544937     -0.08281232387254
  C   3.67792644254651      1.14842641219296      0.17692383250299
  Br  2.65513880679100      2.71055216355986      0.46837473473711
  C   5.07075064513794      1.21812672222753      0.21054824764627
  C   5.81950810450250      0.07240180575310     -0.08774342742931
  C   7.31933799704782      0.23409136238605     -0.24512595698222
  O   7.60628367826368      1.08067531373607     -1.34339883064930
  C   7.78884064664638      2.44661473763644     -1.06975046222097
  C   6.55113216021506      3.15687648166047     -0.54338752464903
  O   6.23201319929259      4.23912723946394     -0.95232358036692
  C   5.79798572517982      2.48620267007805      0.59735481269627
  C   5.17484125481865     -1.13788810026348     -0.34606963451992
  C   5.94715015435397     -2.37747875130049     -0.68265439412298
  O   6.96618984240363     -2.69940589700164     -0.13656486289394
  C   3.77981873203111     -1.19804767096561     -0.32497102930613
  Br  2.93467349637650     -2.87054943757774     -0.58747888570532
  H   7.79431390743407     -0.71655677661551     -0.45087888361687
  H   7.76429051322576      0.62685851248526      0.67615669420359
  H   8.09333343382557      2.92568169959670     -1.99751088810037
  H   8.58472800449672      2.58963533446132     -0.32259637210499
  H   5.11767126372329      3.22287211782958      1.00847525019853
  H   6.53111918420324      2.23436762308352      1.36941335020102
  H   5.51973487960070     -2.99076296686008     -1.49049642095123
