21
Coordinates from ORCA-job 20163optt
  Br  3.96504621015844      1.94080598466866     -1.60373639351690
  C   5.23538660694615      0.56029222264615     -1.55224300511328
  C   4.92646737550937     -0.74078213691603     -1.75775285872996
  Br  3.17257593118814     -1.25247199921016     -2.21984692092718
  C   5.91046271573958     -1.86293082568675     -1.63827042763897
  C   5.71424978886943     -3.16406149669575     -1.84579261456206
  C   6.89574374082741     -4.09128523659510     -1.65690160715340
  O   6.90196063364089     -4.96249214894823     -0.83075362477752
  C   8.00902928459451     -3.66470806273950     -2.53319732421049
  C   9.09481555008667     -3.09396266628124     -2.01451705964690
  N   9.97146201433178     -2.34891423010325     -2.79589476465289
  C   9.65451355582130     -1.30126144428198     -3.40904579685768
  S   8.14168869751191     -0.31145253802265     -3.41939136661191
  C   7.69248648909192     -0.19405888749562     -1.71417017765194
  S   6.86194245831598      1.26794130887075     -1.24605187491850
  C   7.11306930501472     -1.23166077967846     -1.05756299967577
  Br  7.15771314871631     -1.34244203648807      0.83460857148462
  H   4.75370473027740     -3.57066681193857     -2.13440928907447
  H   7.75910221180201     -3.46569267609418     -3.56975280951288
  H   9.35352851369346     -3.19444136988250     -0.96508277545128
  H   10.37105103786255     -0.86675416912749     -4.10423488080062
