22
Coordinates from ORCA-job 20161optt
  Br  1.71664033492857     -0.62584716872912      0.34418985126546
  C   3.46331044806494      0.06313673881116      0.36797462161288
  C   3.80240351908781      1.24028811022163     -0.20624007182119
  Br  2.56965170483620      2.14986908876118     -1.30549400127660
  C   5.18241972788189      1.73091960724040     -0.08484454134213
  C   5.55626611376734      3.04310050412003     -0.22134085110393
  C   4.66370061811051      4.21832755996553     -0.29605723382337
  O   5.07986778245587      5.28415356655562     -0.67478480901088
  C   6.99835412785950      3.26188419728922     -0.35565736649600
  C   7.74532846121730      2.68162137699111      0.59163104837646
  C   8.53787612599413      1.59935375982054     -0.00408214701241
  O   9.64325475344946      1.48789380388130     -0.43428078747123
  C   7.49757264667882      0.46213319325707     -0.24599059763246
  N   7.82496708552247     -0.63818140359315     -0.74791105643083
  N   6.09627085338052      0.62691172672912      0.13284157754903
  C   5.60040812177136     -0.49842510194554      0.75105580481797
  N   4.36871797283221     -0.75649199147544      0.97732179725851
  H   3.64195120532131      4.11737567845969      0.08914772539480
  H   7.40595292908963      3.51426286763214     -1.33111914610856
  H   7.23493504357005      2.40132440443616      1.50875022817305
  H   8.83950946044447     -0.64473569884644     -0.89183783706045
  H   6.35564096373557     -1.20487481958220      1.06772779214187
