20
Coordinates from ORCA-job 20160optt
  Br  1.11381881255281      0.25109115716395     -0.01874322340238
  C   2.93890257394216     -0.09183454185723     -0.01836611825438
  C   3.52535638097147     -1.28759104401269     -0.02003572606742
  Br  2.52250733297513     -2.86346510877117     -0.02456996572636
  C   4.98508216238835     -1.37810940424135     -0.01828839321693
  C   5.67664376961565     -2.52916368683168     -0.01759515253707
  C   7.14148325242971     -2.57235384948897     -0.01628610352881
  O   7.75410123009852     -3.62374540119938     -0.01563770251302
  C   7.77541046366696     -1.26758324375680     -0.01647950679594
  C   7.05065372099772     -0.13626230190416     -0.01705022742601
  O   7.68501409189199      1.04903678576966     -0.01736433281983
  C   7.06576067162395      2.29422820864563     -0.01752080806839
  O   7.76355416519876      3.25639897008205     -0.01823639679913
  C   5.62589995579547      2.25264224721627     -0.01675135694341
  C   4.99375514450332      1.07090934200032     -0.01684051140808
  O   3.64760689829814      1.06810013349620     -0.01606403590354
  N   5.65425165816006     -0.14128347559930     -0.01747766859442
  H   5.15265839833359     -3.47225748606084     -0.01812119835588
  H   8.85235816271901     -1.19164841190969     -0.01625123411271
  H   5.06818115383719      3.17389111125919     -0.01632033752630
