21
Coordinates from ORCA-job 20173optt
  Br  0.93599726006312      0.04515185307537     -0.36895666462094
  C   2.79863656655367     -0.08892265900711     -0.15195400262859
  C   3.48095443159210     -1.27075569816429     -0.16617766484869
  Br  2.51765913513880     -2.87091323701258     -0.43291364620830
  C   4.89498504320259     -1.33543261432924      0.00296348283524
  C   5.83274742834996     -2.35696343422575      0.03416573956074
  C   5.73072221606361     -3.82095071952736     -0.04936479963788
  O   6.69055718552641     -4.52778365428634     -0.23064032263302
  C   7.09357480172122     -1.66393092525650      0.20495385169001
  O   8.24760082672701     -2.31439419525972      0.30832625128764
  C   9.38416665328120     -1.51311905027708      0.57211814806575
  C   9.37433797866410     -0.96922731292520      1.93900959953092
  N   9.40620416992029     -0.56047012740137      3.00747618041346
  N   7.00911922421019     -0.36553350666233      0.27972765944043
  C   5.66980723715412     -0.10102031728059      0.16026902023340
  C   5.14314246842031      1.14308527440581      0.20348602545379
  S   3.48787514653998      1.46371703556929      0.05602607736714
  H   4.73384264634440     -4.25956684212360      0.08090224643650
  H   9.45075873814496     -0.68452772807417     -0.13303795212719
  H   10.24140207866791     -2.17246208874382      0.46046218548026
  H   5.77190876371393      2.01301994750661      0.34115858490933
