24
Coordinates from ORCA-job 20178optt
  Br  1.52650071597373     -0.37945494399767     -0.67446300132838
  C   3.34588465147852     -0.05289553213244     -0.37592344134278
  C   3.88612156963578      1.19222507620805     -0.26357555442454
  Br  2.89801105611071      2.77760766509343     -0.45396491025086
  C   5.27287180382799      1.24736011485145      0.01015410927191
  C   6.04346155104964      0.13935278177287      0.10023042389060
  C   5.52629889966911     -1.18604696855588     -0.10269886636491
  O   6.13145211443199     -2.23300641155294     -0.14087182545704
  N   4.12607158774765     -1.16045583243858     -0.27728463004423
  C   7.47806233056993      0.60256925276159      0.26091745180443
  C   8.12856481662269      0.82091826170782     -1.12910625865216
  N   7.30329308800525      1.67623649172177     -1.97040084536163
  C   6.71364971884863      2.82040675818400     -1.27863112673246
  C   6.19715552554830      2.44076517375229      0.11850844897731
  O   7.30463043162609      1.89765994364078      0.83692344926631
  C   8.31724643030170     -0.21904805201260      1.13636662874645
  N   9.00555616394792     -0.85857277094026      1.79021266815646
  H   3.69840317597029     -2.07109900908786     -0.38779268958431
  H   8.29208042356631     -0.13403706975898     -1.62756107554996
  H   9.09570779836975      1.29669261157479     -0.95231772204805
  H   6.58379738949715      1.13009252715508     -2.42533070797293
  H   5.91367186019602      3.23425408107668     -1.89337879504941
  H   7.47630813991283      3.59008719951039     -1.13954306535090
  H   5.79519875709187      3.28738865146622      0.67153133540110
