22
Coordinates from ORCA-job 20170optt
  Br  5.72159225665490     -0.17403850384600     -1.70500824834317
  C   6.21534840413711      0.82033682681067     -0.21311491871897
  C   5.58275664111450      0.82158584529225      0.97178074561313
  Br  4.12965438034159     -0.29470377745782      1.34439769586165
  C   6.03744614522054      1.75523175014941      1.99603047193020
  C   5.66699040185546      1.84813763973851      3.27478435040309
  C   6.32082441427991      2.75954016284812      4.23267583182697
  O   6.08583941763136      2.69036239187790      5.41193895417427
  C   7.31786487480714      3.80321061170840      3.72709779626792
  N   6.84822250893406      4.93199065231765      3.40841947873660
  N   8.63979926541873      3.46309389070321      3.88387212970745
  C   9.64610685542928      3.07801446227051      3.24059476536157
  N   9.90854430259495      2.65168266742019      1.94561684698275
  C   9.17717252758028      2.16137772118235      0.86076637111635
  C   7.86918389608998      2.12641394457794      0.67645022166250
  O   7.32486382379446      1.56024525228125     -0.45446897278259
  O   6.96683220122724      2.65361608924632      1.52324930875732
  H   4.90466487406910      1.19494795843769      3.67319834595493
  H   7.58997349751763      5.58704629529504      3.16333031222143
  H   10.58942958332629      3.07419409549262      3.79024248204170
  H   10.89528345254300      2.49917856716776      1.82195652084271
  H   9.78960627543239      1.75753545648602      0.06818951038216
