21
Coordinates from ORCA-job 20182optt
  Br  1.34711271624863      0.51952629079565      0.08306588924973
  C   3.18204807594818      0.15035849885346      0.08663626887531
  C   3.70495223074257     -1.11267357422982      0.06364927162842
  Br  2.63273999241218     -2.64669631318960      0.00934033546760
  C   5.11973275853066     -1.27709554087243      0.07687588112659
  C   5.96363648470291     -2.34785506591497      0.06832762118622
  C   7.33270811061126     -1.86650669377018      0.08419502369385
  O   8.39783745076523     -2.42929701185277      0.08336638597263
  N   7.22901782755553     -0.42589164933941      0.10232661539956
  C   8.33961440060511      0.39371924267355      0.11418931577882
  N   8.43772310129371      1.65585119662747      0.12719479591992
  N   7.39149156339113      2.54932300087535      0.13422995223936
  C   6.03266704982274      2.47574082311557      0.13430030461554
  O   5.35522325193461      3.48487852075760      0.14484230283980
  C   5.34610842671242      1.15724451501400      0.11777029017027
  N   3.97848402536895      1.24338936130660      0.11465188069858
  C   5.90727947847524     -0.06371277179473      0.10074280421667
  H   5.70450387259352     -3.39245685357986      0.05237758613973
  H   9.26353948047124     -0.17218795357454      0.11054009253996
  H   7.72473645530857      3.50165361722764      0.14351631481282
  H   3.59384324650557      2.18168836087141      0.12886106742861
