25
Coordinates from ORCA-job 20185optt
  Br  1.03879021857296      0.06598112798916     -0.24522091640635
  C   2.92240979782875     -0.02598221165629     -0.13152103031024
  C   3.58630543999980     -1.23165190862486     -0.00298303683382
  Br  2.65567238064503     -2.86031402586350      0.14440639996332
  C   4.99582251497819     -1.21527673741400      0.01771695253152
  C   5.64083032799407      0.03837781099314     -0.04546069037417
  C   7.11151368422326      0.11040714539241     -0.03024644635071
  O   7.78334769581448      1.12608780826287     -0.06467986862653
  N   7.74630036546816     -1.11510063027140      0.02553239859183
  C   7.11882149980051     -2.32362095455094      0.08725150290328
  C   5.77881776418700     -2.41676608617015      0.09169646765154
  C   4.85673904152804      1.20692523788242     -0.13456864749527
  C   5.42284176069315      2.61382932043088     -0.14284809087253
  N   6.04107543650584      2.99075339282628      1.10719427547354
  C   5.29592952185075      3.29301177095432      2.21563801972337
  N   5.68220462331300      3.41621672879985      3.41823812257670
  N   3.53830339560204      1.14442866511757     -0.18876167114562
  H   8.75491122114770     -1.06143992535831      0.02991422141919
  H   7.76458169726273     -3.18922730592800      0.12934236441973
  H   5.30344008241379     -3.38165280585153      0.14241150942051
  H   4.58554200158058      3.28068625840080     -0.34423051525019
  H   6.15695972452325      2.72450996251672     -0.93793668534248
  H   6.99050182778013      2.67205226200953      1.23477347396096
  H   4.24381182170718      3.46997347678224      1.98479903373346
  H   6.68052615457955      3.22479162333077      3.51254285663896
