21
Coordinates from ORCA-job 20183optt
  Br  1.32620540129549      1.08575370165339      0.24257109302080
  C   3.13617091473183      0.68690945641951     -0.04221448102367
  C   3.51785734344686     -0.60148843033777     -0.18267609149750
  Br  2.32235582283929     -2.05031732666253     -0.20185567321538
  C   4.90666619522948     -0.91846657467708     -0.27482810987229
  C   5.62357524339551     -2.02115840515016     -0.49875858236578
  C   7.05758174482282     -1.60096419364360     -0.36966616572131
  O   8.03409702142705     -2.26551802847424     -0.50630989980985
  N   7.10284578877768     -0.17525873358875     -0.03363049984158
  C   5.88327717661086      0.16967845372328      0.01245888608801
  C   5.42881682955623      1.55306753058846      0.29132217279163
  N   6.26985150542113      2.36318826198302      0.80646306681750
  C   5.65900587122587      3.61630092999010      0.82616690927011
  C   5.33430455731169      4.16712210746034     -0.35698681355052
  C   3.88053293152739      4.12120152147516     -0.50021502607738
  N   3.33329921775039      2.97556290841133     -0.33704412947620
  N   4.03200539897424      1.80012341918142     -0.04850582368960
  H   5.29979954910064     -3.02576084033365     -0.71363413256747
  H   5.16569862963027      3.89263525375683      1.75405055471302
  H   5.90899902538496      3.87245210705752     -1.22968113394714
  H   3.19305383154026      4.91293688116739     -0.77802612004538
