22
Coordinates from ORCA-job 20180optt
  Br  1.61648641993601      0.90909000552791     -0.77613976910304
  C   3.39674577708422      0.51929966251115     -0.36595811244261
  C   4.46006402528590      0.87219330749834     -1.12815250146701
  Br  4.27734036161755      1.77798796563458     -2.75757821912876
  C   5.75619286284852      0.51073453804581     -0.66165889702515
  C   5.98529443047227     -0.20235734474553      0.50056053341503
  C   4.81695850534882     -0.60229602863206      1.29974384765811
  O   4.80202926432265     -1.24696352380095      2.32933448848344
  N   3.59505447220997     -0.16720030324829      0.78405450365797
  C   7.34352650769053     -0.64546423811908      1.04746094607229
  N   7.47091843296528     -1.67890437245523      1.75787007057363
  N   8.61460366969513      0.04634844867983      0.86606140059893
  C   9.05273368563058      0.40443900540156     -0.26231780684268
  C   8.02134100953985      0.16557338275766     -1.31192035597048
  C   7.00052420621871      1.03752390119793     -1.24477757681364
  C   7.27271253718370      2.48152704467890     -1.03846760404462
  O   6.45001135358224      3.27968055737976     -0.68240878797885
  H   2.79683941051594     -0.42979635506618      1.34818156876821
  H   6.57893161789549     -2.13843007239175      1.92476395510318
  H   10.03831213310905      0.84696294679654     -0.36392014045672
  H   7.80342682554213     -0.88486346660901     -1.48130115379369
  H   8.31395249130535      2.78391493895811     -1.25943038926355
