23
Coordinates from ORCA-job 20184optt
  Br  1.30129820448359     -0.45303765216102      0.40405178745383
  C   3.16281546050401     -0.20430757416207      0.20871446435084
  C   3.70724990702709      1.09724179604966      0.17069322477860
  Br  2.67165943569615      2.64341771111321      0.34248232053900
  C   5.07171845548971      1.14677405173518      0.00437414120646
  C   5.82190299250814     -0.01936502490825     -0.09273830769818
  C   7.26087954117507      0.35386638913546     -0.24830662724668
  O   8.22596325422907     -0.35031344764646     -0.34284684018317
  N   7.26967742460984      1.74558347426523     -0.25677829968664
  C   6.01259860367623      2.31978465646242     -0.10874014426344
  O   5.77202994685932      3.48981490121804     -0.08514460618294
  C   5.20590355449271     -1.25581326355301     -0.03481225741676
  C   5.92577069964394     -2.56825751095664     -0.07868673075959
  C   6.00738154754665     -3.16568435178172      1.33852123058679
  C   6.59848664937424     -4.49909752663876      1.33525689894512
  C   7.07719688047811     -5.59610571920712      1.31071974216868
  N   3.87494927961178     -1.30018348582224      0.11434416782006
  H   8.11273082468599      2.29078654349237     -0.35522925262226
  H   6.92736818712305     -2.44178225832867     -0.48416189769471
  H   5.36138985066292     -3.24835687328380     -0.71670746770293
  H   5.00198197603446     -3.21655382222502      1.76221142102876
  H   6.60031792926204     -2.50764495084850      1.97847857717504
  H   7.50272939482576     -6.57076606194824      1.29830445540412
