19
Coordinates from ORCA-job 20194optt
  Br  1.59090443788998      0.73908229812438     -0.54773870894394
  C   3.36564375962884      0.35814657127351     -0.13491411563775
  C   4.42854631082882      1.08966507803019     -0.52878224480158
  Br  4.22549482071459      2.51768903803999     -1.72984721007354
  C   5.73708908746815      0.66830585726503     -0.07977752476575
  C   5.87816804826418     -0.49478075846426      0.61112125676227
  C   4.70621222806218     -1.32323468695425      0.92600620995289
  O   4.69795057950167     -2.40522756007166      1.40818851693344
  O   3.47910334207125     -0.74402902728669      0.60248930090063
  C   7.19263489844434     -1.05590344991926      1.07020843634288
  O   7.35048703484992     -1.48861809882067      2.17778676262279
  C   8.21459772888833     -1.16587563350109      0.00259718357991
  C   8.52508133122606     -0.15395693912419     -0.81761352903382
  N   8.08838138390993      1.14662740498301     -0.67427455176041
  C   6.92735878747150      1.52348441358131     -0.31780635118705
  C   6.78902089584753      2.94369146441997     -0.04045981679131
  N   6.72215314399952      4.05089516477987      0.24658892296309
  H   8.77353702301249     -2.09275052889793     -0.03704351633160
  H   9.31063515792068     -0.26621060745727     -1.55472902073116
