20
Coordinates from ORCA-job 20191optt
  Br  1.04421487657375     -0.40244144306151      0.35098653913501
  C   2.87868038262292     -0.10293402224830      0.24606802633687
  C   3.47371706329249      1.09877230090545      0.11455334399616
  Br  2.44835351877555      2.65539989865874     -0.08893890699252
  C   4.91262011072426      1.10588806719347      0.04536695785901
  C   5.65242574430735     -0.04497572342891      0.04085486519221
  C   4.94348160262178     -1.32190464811058      0.22827174049766
  O   5.44387676929931     -2.39790781163355      0.33886766054178
  O   3.57116460958321     -1.24402394673426      0.31464038017787
  C   7.10257874704487     -0.08886190390095      0.00533657255596
  C   7.90730849341749     -1.29544315593435     -0.35583602010826
  O   9.08934888020024     -1.35222309148085     -0.13882943212660
  C   7.81310083931039      1.00924202636943      0.34322949671525
  N   7.20776709682617      2.20666164431285      0.57018549728288
  S   5.79997495929416      2.62474735536220     -0.19995944640856
  O   6.02603701655389      2.73135941959958     -1.60022426499372
  O   5.29362406723111      3.72819373446189      0.54236923214121
  H   7.38069453006287     -2.10847937850055     -0.86762205344126
  H   8.88730524669487      0.95004013762867      0.46533826058621
  H   7.70072544556323      2.98489054054152      0.98734155105284
