24
Coordinates from ORCA-job 20196optt
  Br  1.22358623269342     -0.56302411637560      0.50116994146935
  C   3.08527955095361     -0.29130473209565      0.32992283980365
  C   3.61547357904266      0.97346143561009      0.11617654927432
  Br  2.52293277073982      2.49452650613217     -0.08384688731712
  C   5.00670757147377      1.08646240396851      0.03902369271613
  C   5.79176567074714     -0.05991762377376      0.11136884139328
  C   7.26325563159659      0.00879826140008     -0.14668820785740
  O   7.92790060110493     -0.92291462922463     -0.48074816858228
  O   7.82988335203757      1.23084297555573     -0.05346071525982
  C   7.08230417620682      2.29333426823733      0.52543580256631
  C   5.71110653205146      2.40321949967094     -0.10393344601870
  C   5.13657953937321     -1.28999136872858      0.32309195546165
  O   5.85898050761268     -2.39681108724014      0.43284365695389
  C   5.14526150895082     -3.60900763586232      0.68994340378626
  C   6.11256249120478     -4.69299434847284      0.79230512427141
  C   6.87889217645924     -5.60555019958993      0.88488243355787
  N   3.82403225611781     -1.37622754254160      0.44070653604775
  H   7.67296569976121      3.19078037012016      0.35982082096708
  H   6.99316698161869      2.12583297115006      1.60258651756928
  H   5.79375678878837      2.66763538734044     -1.16227848036699
  H   5.14256014528075      3.19348768542608      0.38448771731042
  H   4.43466086589103     -3.79585279265533     -0.11664960612482
  H   4.57609167071816     -3.51159153102115      1.61598749215635
  H   7.57029369957539     -6.41019415703007      0.96385218622213
