22
Coordinates from ORCA-job 20190optt
  Br  0.94987899591933      0.28752368305068      0.40296622567339
  C   2.79172086226392      0.02303520098933      0.24760939117078
  C   3.40485485768012     -1.15140093417885      0.06637176061992
  Br  2.41529395379559     -2.73883473127414     -0.11155304346168
  C   4.85876934337916     -1.18481944343775      0.01773700839738
  C   5.58251979974440      0.02288924531786      0.11820362868862
  C   4.83800817945373      1.29533355444187      0.21930372211454
  O   5.26624146813419      2.40245844947422      0.21071370976934
  O   3.45959488665091      1.17881367540058      0.33971281682585
  C   6.98986099349209     -0.01239440660414      0.09891055722361
  Br  8.04043520787686      1.54522947689289      0.28860553723504
  C   7.67313492757160     -1.21677910183407     -0.04812760821877
  C   9.18190240882673     -1.30926930951372     -0.10281030081524
  C   9.80665016482619     -1.16369382307125      1.21143699472153
  C   10.31317605119187     -1.06248211122900      2.29098367182955
  C   6.92845649193624     -2.38824151295510     -0.15094245387858
  C   5.55319965943888     -2.38557615124437     -0.11394809027148
  H   9.58037987389957     -0.54694607748347     -0.77484240172707
  H   9.45499576647607     -2.28131153642301     -0.51615929342092
  H   10.76484816762318     -0.95817501899295      3.24827166199101
  H   7.45277164418937     -3.33008864726202     -0.25704464776441
  H   5.00830629562988     -3.31427048006358     -0.18639884670240
