20
Coordinates from ORCA-job 20210optt
  Br  1.13002254833295      0.08952255253047     -0.11064756585423
  C   3.01500911957083      0.01298985024548     -0.06945134223780
  C   3.78876567516029      1.16297977615788     -0.04601492347192
  Br  3.06585320019739      2.88769654267748     -0.04161547097423
  C   5.18337819001654      1.02705620801073     -0.02885751466539
  C   5.77463758398888     -0.25797684117534     -0.02848436610999
  N   7.13118642753600     -0.00062587122972     -0.01975618569286
  C   8.35051833444716     -0.67407058853118     -0.02695632920755
  C   9.38422745566006      0.17633395694720     -0.02573609286870
  S   8.90911744404601      1.85478206610367     -0.01463111286752
  C   7.25106525199289      1.37644631273273     -0.01504654293488
  N   6.12355238532940      2.02494041991025     -0.01821816751270
  C   4.99010965684158     -1.41834033423563     -0.04204552324191
  C   5.50602536218184     -2.79428865501422     -0.02511085768538
  O   6.66996818262163     -3.10137800436666      0.03356849161674
  C   3.61296244865708     -1.24865475581812     -0.06582069173777
  H   8.36227518647144     -1.74957010393330     -0.02984412251638
  H   10.42666841079335     -0.09165147987065     -0.02947249713332
  H   4.72215676313138     -3.57165575955960     -0.07008693862856
  H   2.97950037302321     -2.12653529158147     -0.07877224627566
