30
Coordinates from ORCA-job 20218optt
  Br  0.99225546270930     -0.57235202194517     -0.81307878741625
  C   2.83662398752025     -0.28770366087751     -0.56856620170502
  C   3.37789792469598      0.97428065497994     -0.33776994310683
  Br  2.32080375594604      2.52807716428839     -0.23021388554314
  C   4.74842121436056      1.07354649824515     -0.18193467153870
  C   5.50108600565036     -0.09493361280877     -0.23685115922623
  N   5.00399273451601     -1.30244698221832     -0.45575339505477
  C   3.68998895677234     -1.38710207472256     -0.62478001760189
  C   6.96759390311957      0.17069753431410     -0.00881902681016
  C   7.77993437315172     -0.13928352289372     -1.27790510579644
  C   7.41351995541922      0.70681768458870     -2.41079456533468
  C   7.09729744525157      1.42135616196831     -3.31918248108468
  C   7.54159999643648     -0.60512544983522      1.20307604123472
  C   8.22105041382344      0.46602092428800      2.05991286932415
  C   7.29248994643405      1.66597706010351      1.89426782088152
  C   6.99099995765309      1.67993354141852      0.39260245055313
  C   5.61719929376852      2.27834661689789      0.02569706589993
  H   3.27306070285362     -2.37032524199241     -0.80801751594086
  H   7.62782224381700     -1.18898576238283     -1.54183665809218
  H   8.84309239026145     -0.00484136680651     -1.05799559153448
  H   6.82342105526449      2.04169573331731     -4.13878304251784
  H   8.21478763852368     -1.40457624545963      0.89266347219795
  H   6.72705842992690     -1.06877244247761      1.76202857929112
  H   9.20821465997065      0.70555449479348      1.65440786477974
  H   8.35427168245743      0.15807896696337      3.09667053887783
  H   7.71387131676647      2.60766313707118      2.24684451019335
  H   6.36572530561665      1.48740497664869      2.45033702355218
  H   7.79302852730188      2.19739871047285     -0.13681947815154
  H   5.65999956027784      2.85913833702173     -0.89867622029685
  H   5.22989115973330      2.93646018703915      0.80626950996692
