22
Coordinates from ORCA-job 20214optt
  Br  1.75726016446951     -0.67152178137430      2.04136709862665
  C   3.16568007756671     -0.13207834490984      0.92472712010120
  C   3.57426200177237      1.14418387465015      0.80072091268401
  Br  2.74299452373194      2.55303077195103      1.74109823027370
  C   4.68545338209765      1.49341931615833     -0.03878739514581
  C   5.36452690943911      0.62299263090387     -0.81174895380118
  N   6.39660879125707      1.22560024204036     -1.57598114594071
  C   7.77322941241304      0.77845206756438     -1.26982531411010
  S   8.02749948127455      2.27048961917458     -0.25604318730010
  O   7.79450768538075      1.99532701614621      1.13197818145680
  O   9.12225136880395      3.09321836079564     -0.66814690186300
  C   6.45103387490223      2.63474966585251     -1.10591171345090
  C   5.24141777912162      2.88383790248375     -0.21393115593029
  C   5.08091613312696     -0.79105672656798     -0.98758041347719
  N   5.60556621889622     -1.59787124716267     -1.81380910932773
  S   3.86404683303028     -1.48695673484488      0.09608087034093
  H   8.42342658300709      0.79149179038445     -2.14205982070453
  H   7.83698744127472     -0.15695460996056     -0.71707512540247
  H   6.62067130506975      3.35223574052050     -1.90532035360185
  H   4.51501704715633      3.54212704404308     -0.69279236459326
  H   5.52166770373138      3.33157503725253      0.74133302480645
  H   6.28597528247671     -1.12729163510116     -2.40829248364062
