21
Coordinates from ORCA-job 20216optt
  Br  1.15005870495560      0.29016968522202      0.32660293125119
  C   2.99834823316119      0.03103923294816      0.17486538616825
  C   3.59699719019304     -1.18534070877898      0.18568275767601
  Br  2.63527687796553     -2.78001913912466      0.38603851152236
  C   5.02369431719645     -1.18170054679880      0.06216640705122
  C   5.71976718987108     -0.01973543724806     -0.06451213326222
  N   7.09262498012213     -0.23274229048802     -0.30244436853261
  N   8.03450088602750      0.58167284977775      0.33920129971674
  C   9.18361311964317      0.05829618979855      0.34790785009356
  O   9.49626870906467     -1.16077664687756     -0.16486894151986
  N   8.45617345506799     -2.12432867893452     -0.02380819830534
  C   7.31494893168346     -1.59921316989005     -0.14696359403926
  C   5.99525392611680     -2.29864816239306     -0.01226291753399
  N   5.77652262310050     -3.53876900835999     -0.00607537354350
  C   5.10075384618201      1.29308131010611     -0.08626101197212
  N   5.61836005015512      2.44511993266777     -0.21963393637464
  N   3.71642506646243      1.18542002987711      0.05386774585260
  H   10.02295358670725      0.57675718406248      0.79042632789867
  H   6.65373514950770     -4.05761283204910     -0.08496017568247
  H   6.62984432209897      2.38985330274050     -0.27560286308222
  H   3.22287883471737      2.06747690374235      0.03163429661765
