22
Coordinates from ORCA-job 20211optt
  Br  1.11368320824561     -0.06362570190471     -0.09139658618975
  C   2.98220888145872      0.09646353623167     -0.08323429472548
  C   3.63610723406937      1.27665087412165     -0.07616067988351
  Br  2.80039111269520      2.94901343702155     -0.07123961071960
  C   5.06815915697173      1.18989145086035     -0.07346683567038
  C   5.73549982078539     -0.02266914981602     -0.07634407157870
  N   7.08641196711558      0.32922869078753     -0.07352168029397
  C   7.11674997392673      1.72913796615305     -0.06932230538809
  N   5.92687512249123      2.24953826014869     -0.06897380878082
  N   8.28893243150909      2.43582106633923     -0.06653366365688
  C   9.35575544185050      1.73943693106867     -0.06791630260490
  N   9.38239876835288      0.37258277371332     -0.07160494921997
  C   8.25006013931704     -0.43763125850824     -0.07412510651538
  N   8.24636753287551     -1.69926274631012     -0.07667698391186
  C   5.03926041514635     -1.30549068159887     -0.08212228035424
  N   5.42224021034471     -2.51331527624472     -0.08475564209566
  N   3.64763346148591     -1.09114118350158     -0.08557718585130
  H   10.32666509526228      2.22196448798879     -0.06603000388338
  H   10.27224470972419     -0.09952429423048     -0.07225669127777
  H   9.17806048044960     -2.10016865547824     -0.07682503955701
  H   6.43502059612306     -2.57284798654086     -0.08212761684931
  H   3.11627423979925     -1.95005254030067     -0.09078866099204
