21
Coordinates from ORCA-job 20223optt
  Br  1.07718779984656     -0.48797989532816     -0.00906708518843
  C   2.91317034504134     -0.08665517926240     -0.00788962801664
  C   3.38999510019964      1.21428663625735     -0.00688889426631
  Br  2.27356465874258      2.71853788730082     -0.00651159178141
  C   4.77130232797650      1.38579928995545     -0.00604732359915
  C   5.58670983722618      0.24375388058652     -0.00625817795788
  N   5.12845229865541     -1.00749166868785     -0.00721559231734
  C   3.81991964239452     -1.15978787224145     -0.00799584702941
  C   6.97482805451781      0.60817084037927     -0.00548430704480
  C   7.17451081567356      1.95799607099799     -0.00475797704342
  S   5.68026535155185      2.85486958073914     -0.00461122045302
  C   8.50892773328403      2.55220503707591     -0.00405497180108
  N   8.80543694649899      3.79807980849573     -0.00346838851494
  C   9.55401560145729      1.53104276977405     -0.00402778480971
  C   9.28841951328065      0.21023894214958     -0.00471417012492
  N   8.00858391249120     -0.27616192591180     -0.00553477211406
  H   3.43365214592073     -2.17160891244820     -0.00879823802502
  H   7.97324756358710      4.38635903934978     -0.00356895628829
  H   10.57821632077178      1.87377948039738     -0.00342963653342
  H   10.07063092569057     -0.53486665815120     -0.00469067687747
  H   7.80396310519166     -1.26256715142791     -0.00598476021328
