24
Coordinates from ORCA-job 20239optt
  Br  1.03874406362226     -0.22212340005907     -0.09668837710975
  C   2.88900755451988     -0.00146584568128      0.01113690164372
  C   3.50581505611668      1.19409906427323     -0.13480468338166
  Br  2.51195452074178      2.74725668787621     -0.49036047648651
  C   4.94690295692737      1.30141184338522     -0.05498411157713
  C   5.67253693534991      0.16294334462025      0.08068349220001
  N   5.03391139033236     -1.02573727593893      0.22586137956804
  C   3.65152241988307     -1.22634117820489      0.27759441948234
  N   3.09610396449280     -2.34521376283967      0.50472433717636
  C   7.18657546401430      0.04779854725184      0.05562509355924
  C   7.84427354883738      1.34825445180399     -0.41476687270570
  N   7.24198239865545      2.43585940816606      0.33701217049156
  S   5.74715756367727      2.87907825836904     -0.19532630036442
  O   5.24760387945915      3.81912844588991      0.75556180663823
  O   5.77275622117226      3.22817898190169     -1.58480253792595
  C   7.67884579300011     -0.38000487706143      1.36796903556033
  C   8.07782464503613     -0.73620027893366      2.43823651344205
  H   5.60604256278061     -1.84283626725451      0.38923400131908
  H   3.76824223576897     -3.09060791062046      0.67180196126126
  H   7.42878385484637     -0.73456860633480     -0.67205184389659
  H   7.70002604962993      1.46699450617290     -1.49276356278781
  H   8.90995703410156      1.31576479763292     -0.20206757677408
  H   7.81104033617026      3.25974529183868      0.49210730260813
  H   8.43238955086406     -1.04541422625327      3.39306792805923
