21
Coordinates from ORCA-job 20230optt
  Br  1.15615031331332      0.12024856605564      0.04623386960021
  C   3.02992363434865     -0.00421025464235      0.04420148374185
  C   3.70915824939145     -1.19092840389421      0.04298996640578
  Br  2.84044643725039     -2.84735115662510      0.04270417526236
  C   5.13548988894946     -1.15838509124272      0.04205856047895
  C   5.76545305404603      0.12020468011897      0.04225584933335
  N   5.05547853917158      1.27845970578747      0.04309351273498
  C   3.75922898531053      1.21240485183398      0.04405145071892
  C   7.18337983140880      0.19612366425202      0.04173105667930
  C   7.88825058656800      1.50540881607978      0.04193226053049
  O   9.09028439726232      1.58228590863124      0.04165589860830
  C   7.87827155905089     -0.99144905873320      0.04111464776268
  C   9.25217535910859     -1.40938065023684      0.04054547859573
  C   9.20976192748985     -2.75574121843059      0.03991404358325
  O   7.94306953384375     -3.26096666393244      0.03994692301338
  C   7.11140550088997     -2.19119346958752      0.04072915866215
  N   5.82822443105056     -2.31905618759046      0.04116418714418
  H   3.20531924884612      2.14487155093946      0.04474581427314
  H   7.24791307364543      2.39700547543393      0.04206295296624
  H   10.12614228623681     -0.78386908017315      0.04060588172671
  H   9.99347316281747     -3.49448198404391      0.03926282817806
