23
Coordinates from ORCA-job 20241optt
  Br  1.34076670490005      0.46385973621714     -0.36504330723364
  C   3.18818884239016      0.26468946649560     -0.21230160284109
  C   4.04892143140046      1.30344447616907     -0.12387979269004
  Br  3.39231827473431      3.07167768768543     -0.13635295392735
  C   5.48924280139757      1.11255558668309     -0.02350667703924
  C   5.93154406750118     -0.18112422124474      0.01740300627474
  N   5.04638974668831     -1.22020306939140     -0.06985775505749
  C   3.66873674512890     -1.12481924827574     -0.21622983049407
  N   2.87887241629093     -2.11188883905594     -0.34544385980492
  C   7.34084519833226     -0.57631462451250      0.21141887856173
  N   7.78617064165556     -1.71886040836759      0.53780368510579
  S   8.59741330207419      0.61640264017518     -0.11589157344543
  C   7.72243768758130      2.11084703017351     -0.06283510925401
  O   8.59043251175162      3.16170342460764     -0.09162131292963
  C   8.25202806916987      4.26442171883271     -0.84405018005358
  N   8.81170486755904      5.37139241066958     -0.72780551402196
  C   6.39371648452227      2.23655100493664      0.01950569551214
  H   5.42508949747469     -2.15095743947150     -0.15368018359102
  H   3.36248430780057     -3.00690983284673     -0.32712210161354
  H   7.06851233567251     -2.41306004129324      0.72569847016931
  H   7.46690171967245      4.07225808227505     -1.57227605556874
  H   9.51400147558934      5.36688509701585      0.01210463783452
  H   5.98128087071241      3.23044936252289      0.10896343610752
