20
Coordinates from ORCA-job 20244optt
  Br  1.00506627722453     -0.01781094491933     -0.07761026959500
  C   2.87098764779873     -0.05866131871447     -0.07765348699077
  C   3.58076030507775     -1.20764723857654     -0.07734540550627
  Br  2.76424366335666     -2.89369033669700     -0.07677938259954
  C   5.03187581728146     -1.18915470320451     -0.07743765141652
  C   5.66645910621504      0.06208356300179     -0.07782553363667
  N   4.91799935865225      1.20027509161935     -0.07811184966062
  C   3.52845239021813      1.26402278975492     -0.07808618336559
  N   2.85658796397113      2.34131006244240     -0.07839278226704
  N   7.00293462630527      0.21941169598675     -0.07793473260542
  C   7.65265602303806     -0.90887883660908     -0.07764618928970
  N   8.99713374777430     -1.16595783976741     -0.07763878281564
  C   9.21287951475925     -2.53881200702092     -0.07725432968712
  O   10.24538590547420     -3.12083315448164     -0.07704717647014
  O   7.97324313577950     -3.14415529410987     -0.07699821629676
  C   7.02347259036791     -2.16403773735939     -0.07726138736106
  N   5.74935658208948     -2.33271265568876     -0.07714706347898
  H   5.43335315196762      2.06910916302109     -0.07840707801959
  H   3.45013718412720      3.16785323183697     -0.07868787264468
  H   9.75201500852148     -0.49971353051434     -0.07773462629288
