24
Coordinates from ORCA-job 20249optt
  Br  0.88485573784306     -0.29176267178290     -0.36072900432355
  C   2.74558704264544     -0.21005899756594     -0.21359792277881
  C   3.42970573132612      0.91845174849579      0.08350071877808
  Br  2.50245732773176      2.51234655044428      0.46519762103201
  C   4.87611462586120      0.93284453298373      0.20513854738630
  C   5.50390333598498     -0.27002132498614      0.13253501927014
  N   4.80975980432097     -1.40630420513754     -0.14245522658818
  C   3.43932302435359     -1.48672208785524     -0.41448509919614
  N   2.83939107022243     -2.55349683526962     -0.75077800842766
  N   6.88491249583657     -0.47616876450994      0.26324880251721
  C   7.64659727803628     -0.10023911242291      1.34869092726142
  O   8.83459339951009     -0.22139862890732      1.38549796067893
  O   6.87773162366432      0.40494680703230      2.33578210481218
  C   6.89762570669238      1.83879946344679      2.40796129011058
  C   6.85666979206490      2.48544768697225      1.03353997223980
  C   5.63596383639614      2.22671865654512      0.16119779095946
  O   5.27706545287479      3.08289131328020     -0.60484239849734
  H   5.31703062641351     -2.27822778206873     -0.10211756536008
  H   3.46853362817921     -3.34877118976512     -0.83206247735750
  H   7.38593960347476     -0.93311397473448     -0.48561731630127
  H   7.79741843014795      2.15530572571903      2.93773174418790
  H   6.02257054470065      2.09976664491908      3.00063556218982
  H   7.74514928126332      2.20152947428523      0.45927587072638
  H   6.91110060045549      3.56823697088209      1.14875108668034
