25
Coordinates from ORCA-job 20246optt
  Br  2.30217308669194      1.51316545256258      0.11580519021560
  C   3.72386316760277      0.30979699054639     -0.04951806805035
  C   5.01347984308828      0.69455652721548     -0.21270850721769
  Br  5.48971197110047      2.51345591893106     -0.26160276263940
  C   6.09691454705037     -0.25501231867308     -0.33720584280625
  C   5.76305924995818     -1.57444410446979     -0.26459765620982
  N   4.45433224156507     -1.94682165501195     -0.11040096620187
  C   3.35727163767929     -1.10828288671003      0.00737823504088
  N   2.15112883984479     -1.49977566187383      0.15369114786695
  N   6.59751757065268     -2.68009930923439     -0.40270077840823
  C   7.81728040126419     -2.65762720278596     -0.06259181879216
  N   8.54285687332625     -1.58896886107529      0.44823189083596
  C   9.95839275446714     -1.78362633577248      0.77707065015239
  C   10.69073097524124     -0.88368952002495     -0.22106899756110
  N   9.68727955926345      0.13940995212200     -0.43759270677178
  C   8.41892593523280     -0.34348150179965     -0.25102788829245
  N   7.36911990061024      0.22932377856023     -0.64005190443058
  H   4.29107402035425     -2.94322710205953     -0.10142649225722
  H   2.08210926856270     -2.51456966512356      0.17272075978263
  H   8.38361687964910     -3.58454093696727     -0.14402137119705
  H   10.23422451886485     -2.83294259684911      0.69066876486927
  H   10.13768939639723     -1.45459560420801      1.80011814905704
  H   11.60577343073467     -0.46601389727612      0.19398182267361
  H   10.93115566795135     -1.42577141836168     -1.14198243150675
  H   9.79931826284659      0.86778195833895     -1.12416841815162
