24
Coordinates from ORCA-job 20257optt
  Br  1.03644405755628     -0.18888602453671     -0.53279658235728
  C   2.87038529937422     -0.00230755840795     -0.22623911622967
  C   3.52415163254159      1.19312993741048     -0.16599218612535
  Br  2.58614942669780      2.81682105743287     -0.41509835698295
  C   4.91611479933054      1.29599382132911      0.08218335095103
  C   5.61454746620895      0.12596015959698      0.25752927041767
  N   4.95960772551108     -1.05882230836948      0.18733513531005
  C   3.60328859012280     -1.25028823972277     -0.04873668289290
  O   3.14006752240060     -2.36927605663855     -0.09064616569012
  N   6.96458855784209      0.01559338335361      0.50973234524181
  C   7.56061648227724      1.15688419970851      0.58858206844762
  N   8.90159080088409      1.30288631485758      0.84358904603652
  C   9.28646747612783      2.63793474803438      0.88002186216486
  N   10.41118046837971      3.16278207129400      1.08321999264823
  C   8.01592998473025      3.42488047887696      0.61034532445595
  N   7.02592855709244      2.38296079441358      0.44911796732268
  C   5.62683129890103      2.62327427129414      0.16003682478285
  H   5.50676734336179     -1.90004723237249      0.31793135656689
  H   9.50165316501500      0.50715301157095      0.98507719847911
  H   11.14638330492078      2.47832697600603      1.24750619783623
  H   8.12107000513724      4.03304397117245     -0.29114192699424
  H   7.78396119232056      4.08312317881797      1.45104827712464
  H   5.53663368179055      3.17774639072752     -0.78155364856005
  H   5.19464116147547      3.25813265415080      0.94194844804643
