25
Coordinates from ORCA-job 20250optt
  Br  1.11771113990706     -0.29732992862987     -0.34425253898760
  C   2.96205726826482     -0.02822558885917     -0.20433875093156
  C   3.54150093738684      1.19686755892631     -0.20554777008538
  Br  2.50542535655210      2.76516903024775     -0.36202524460800
  C   4.96214631322431      1.38608849869987     -0.09285770210728
  C   5.70232136457119      0.25404179799899     -0.05914375223781
  N   5.14781399750165     -0.98208167690772     -0.07672822102160
  C   3.77455729039555     -1.24609060330447     -0.09684306225503
  N   3.26673687481499     -2.41101947516214     -0.05323731345706
  O   7.04512171779553      0.22049709241229      0.00726233595037
  C   7.70136700059033      1.36482010812429     -0.54584701306791
  C   9.19191804071028      1.20517931969868     -0.32814480649040
  C   9.73069246439490      0.08802803176207     -1.09694956276672
  C   10.14912304518640     -0.82131349696653     -1.75270226076322
  C   7.13303517511762      2.62914172207168      0.09517973762966
  O   7.84169320654937      3.49442457199978      0.52742527172543
  C   5.62360776879132      2.72212337901528      0.08866728964681
  H   5.78682057101450     -1.76436882516605     -0.08156980278110
  H   3.97259473645455     -3.14005041068808      0.01533159755217
  H   7.46952873744161      1.40190791826891     -1.61800340638085
  H   9.38230456490864      1.06787399547397      0.73796521979482
  H   9.67811102247576      2.13668379615386     -0.62052924356739
  H   10.53142374849464     -1.62711918079805     -2.33271924215100
  H   5.35610506391308      3.41019768014458     -0.72056960644265
  H   5.31128259354288      3.21055468548375      1.01417784780334
