25
Coordinates from ORCA-job 20253optt
  Br  1.63941411221213      0.58918267639267     -1.33477299205533
  C   3.37036235439598      0.03829191560875     -0.90339126002665
  C   3.89093100902845     -1.16264526670562     -1.27830706919076
  Br  2.91991545596460     -2.41627594395436     -2.27824809146190
  C   5.22832949019571     -1.51454314932040     -0.92835195994851
  C   5.97171408265775     -0.63975358348752     -0.21053348511666
  N   5.43495984410756      0.55862013998064      0.15793540334346
  C   4.15153778772881      1.00015568603859     -0.12123547301820
  O   3.76692242565425      2.08316701074075      0.26832916933231
  C   7.41093866523815     -0.97156441666059      0.11183229865485
  C   7.48194278421965     -2.48606318377692      0.29194508987447
  C   7.11593269844293     -2.89239089849123     -1.13228593023060
  O   5.72145580511139     -2.71623339993968     -1.34637879454840
  C   7.97238551830585     -1.91101492296371     -1.98107944508240
  N   8.28860095308627     -0.79436316558924     -1.04737726159621
  C   7.30753154803520     -1.47201232585031     -3.20485748397483
  C   6.76733789412068     -1.07934053676396     -4.19836826312021
  H   5.98600236939779      1.20677402122374      0.70504961028443
  H   7.77039093336580     -0.39735555975360      0.96635364679402
  H   6.78342019110125     -2.88275254306774      1.02549253846868
  H   8.50020567045670     -2.78750574067730      0.53108722617806
  H   7.31513471172623     -3.93010426523082     -1.38211060418327
  H   8.90316976965480     -2.41368713710158     -2.25521835572793
  H   8.16003644997154      0.10120986727995     -1.50343006582584
  H   6.28342747582039     -0.73379527793049     -5.08107844782256
