24
Coordinates from ORCA-job 20251optt
  Br  2.76595589491571      1.49252445313606     -1.08105429072547
  C   4.17403839984423      0.38693785977910     -0.54610711139100
  C   5.46761870390707      0.78186817825038     -0.51063450566590
  Br  5.96034006779410      2.53660853180132     -0.98462200795247
  C   6.55737847549053     -0.08293343188377     -0.11500528000172
  C   6.18954495801809     -1.33709817981034      0.28622109371208
  N   4.89475639445892     -1.74116417584706      0.24913944817693
  C   3.79911586426350     -0.97318657035327     -0.15346591402253
  N   2.60057987154238     -1.39440621485186     -0.18085883336573
  O   6.95854358882054     -2.31353172516346      0.84013414805566
  C   8.29496274008432     -2.32605858066913      0.49264603710872
  C   9.25976392197556     -1.97472697945163      1.32656542555098
  S   10.81247640763048     -1.49625863399520      0.65257285148838
  C   10.35493012352703      0.00791662640510     -0.29085661711767
  N   11.30240733030794      0.80600683749679     -0.49818166904489
  C   8.94978423304398      0.02408754604579     -0.75090651919858
  C   7.94991016461129      0.39932223928088      0.03861805257084
  H   4.71678499796515     -2.68533921770574      0.56052341132194
  H   2.51895956799950     -2.36142099599045      0.12382622029249
  H   8.47437282460182     -2.56493826762646     -0.54844971090693
  H   9.04513475440274     -1.73823011321763      2.36109276429351
  H   11.00284002500591      1.58045665373925     -1.09095722141654
  H   8.74318473521124     -0.54560492903494     -1.65172375379184
  H   8.17661595457786      0.95916908966627      0.94348398202973
