23
Coordinates from ORCA-job 20259optt
  Br  1.19989335831531     -0.42896169768000      0.22242180384547
  C   3.03499423411210     -0.14748698045081      0.04062129666538
  C   3.66085041866310      1.03105842920510      0.30636761841491
  Br  2.65958876685814      2.50162828952935      0.93709852343005
  C   5.07667911282550      1.19203387802716      0.12759885967223
  C   5.77213183528574      0.09806834861406     -0.28431345250526
  N   5.15206353988691     -1.07595710074689     -0.53409841640596
  C   3.78794274178409     -1.32254534429750     -0.40829055735654
  O   3.33333755123912     -2.41378365491334     -0.65393450168649
  N   7.17965574642863      0.08961909539087     -0.48903564221403
  C   7.58283347493743      1.00441517538523     -1.51967183786584
  N   7.73292511951411      0.71270276608754     -2.72509409495630
  O   7.81974588518370      2.26947600093315     -1.08212082566479
  C   6.66445579595702      3.02326021729857     -0.74866762037282
  C   5.83793498745744      2.47108680767826      0.42791643115978
  C   6.69219016065248      2.27921732613215      1.60835759338013
  N   7.37704338977384      2.07678338792153      2.50469082179371
  H   5.72105470106126     -1.86056182184235     -0.82674885342861
  H   7.66097177565621      0.31450103595909      0.38112238885067
  H   7.60382713866603     -0.28642443507652     -2.86762973065751
  H   6.01269431427738      3.09826464254264     -1.62350237574805
  H   7.03862562925144      4.01050378416135     -0.48746870622736
  H   5.11956032221295      3.25310185014133      0.67438127787724
