29
Coordinates from ORCA-job 20254optt
  Br  1.60131810878966     -0.20477679515302      1.58495448109893
  C   3.26894366840739      0.10521373979731      0.79668913670800
  C   3.69149607824663      1.29939505814143      0.29004036472245
  Br  2.44728026339604      2.73297289370394      0.32733415360056
  C   4.99950208042842      1.51135470492643     -0.29311188933220
  C   5.79396222553737      0.37586395103168     -0.36525226551920
  N   5.33849521342578     -0.80261732991688      0.13670801384736
  C   4.12708616328848     -1.06636879198806      0.75361346022918
  O   3.87691456947096     -2.17653140647734      1.17023591215224
  C   7.21050299957304      0.23833137147774     -0.92552045477327
  C   8.33122449461051      0.11205330711520      0.20724000983153
  N   9.36231772480905      1.16363552821900      0.21162933658664
  C   8.94917684456743      2.59163336581704      0.07343257589046
  C   7.52325985302544      2.46648914556767     -0.40526707572397
  C   7.52841074534289      1.53132075082337     -1.62387640472965
  O   6.61790296439853      3.51705469432041     -0.55997790824195
  C   5.32801162155504      2.93904493101177     -0.82249336815225
  H   5.93908549174010     -1.61519697240323      0.07665143433725
  H   7.22451855051805     -0.64061800275578     -1.57586335857314
  H   8.86251723277304     -0.83013063398994      0.08082804737942
  H   7.85014393227123      0.06824575207821      1.18670719422066
  H   10.07621008574640      0.94294746701788     -0.46495323753969
  H   9.61420750540903      3.08926237409666     -0.63427195296449
  H   9.00893886698327      3.10621390883670      1.03412560903309
  H   7.11362805075196      1.92096233215482      0.44122517789643
  H   8.49869754378301      1.51135365564607     -2.11744632398527
  H   6.78274006960807      1.79907461870433     -2.36703247198424
  H   5.15273844574700      2.94881525788702     -1.90188143723021
  H   4.62576860579610      3.63300112430953     -0.38146675878467
