28
Coordinates from ORCA-job 20258optt
  Br  0.99075438580342     -0.19238375539450     -1.11135928839298
  C   2.80817461357017     -0.10548603490705     -0.68349134935037
  C   3.52384787887164      1.04400993564828     -0.55689173708634
  Br  2.64621624452346      2.69899274404655     -0.83280307680124
  C   4.92823789020655      1.07339739119245     -0.22859287982942
  C   5.55014563768514     -0.14209344193649     -0.17738366705072
  N   4.82063684239103     -1.28858549201512     -0.31199041971239
  C   3.45628923423511     -1.40274002177875     -0.51255069654180
  O   2.92414594398571     -2.48932371092491     -0.57060706854616
  N   6.90841391676747     -0.39332968855828      0.00482660190924
  C   7.35191184498230     -0.79882321150407      1.34139896004135
  C   7.81238589891797      0.36314544707731      2.21691148327401
  C   6.86695526062541      1.56465711708300      2.23335184778480
  C   6.85184538238865      2.46416730083695      0.96295097076843
  C   5.57029319763790      2.40213793252347      0.09968203543832
  C   8.06561063939315      2.32768238093544      0.15326263937413
  N   9.00803063114140      2.19903649521722     -0.48808099656523
  H   5.33301974684012     -2.16102592904699     -0.32898902250704
  H   7.52134526899654      0.26467514755823     -0.45234951215010
  H   8.15689531189299     -1.52858248849568      1.24502006463577
  H   6.51036755424630     -1.30759277424793      1.81629569240876
  H   8.80577397350456      0.68946228131736      1.89994427558951
  H   7.92382384710940     -0.00739492837957      3.23814938831811
  H   7.14487138104747      2.19612186673079      3.07671414494236
  H   5.84102589540127      1.23363036985853      2.41485278559045
  H   6.88257205841569      3.50187740856436      1.30373212526493
  H   5.74178644288546      2.98069075042847     -0.81164118850667
  H   4.82762307653354      2.96667690817091      0.66363788770028
