21
Coordinates from ORCA-job 20261optt
  Br  1.57387576899804      0.31771078371015     -1.11976264664240
  C   3.27089282930784     -0.02578243391848     -0.42278706599749
  C   4.39635022786421      0.64074385481103     -0.79566650421988
  Br  4.33004652809517      1.92141384205864     -2.16678507720504
  C   5.67195636184159      0.31276391204581     -0.21054351057327
  C   5.70005990375893     -0.71868061351607      0.67124797859080
  N   4.59229284147982     -1.39872170002221      1.02164663188228
  C   3.30657178716712     -1.11888275986253      0.55775229864735
  O   2.36314951395260     -1.76229821600679      0.94480834420168
  N   6.92146584384970     -1.19838005953219      1.23342897931877
  C   7.64362237175511     -1.82286881999170      0.16655799937808
  O   7.62448947582000     -2.98216723734942     -0.05312536348308
  O   8.34771208051190     -0.97893030047682     -0.63902974359019
  C   8.26765984181235      0.39993638728101     -0.57162883969245
  N   9.29272925647172      1.09427343344937     -0.74381921297902
  C   6.91847357677239      1.09694063655497     -0.39993927994969
  N   6.87131946873089      2.35632852577734     -0.38626074278744
  H   4.68153585173871     -2.17281114459209      1.66862057559980
  H   7.44780275366094     -0.44310878230973      1.66276892013170
  H   10.12575081910148      0.52281813343998     -0.87195583697160
  H   7.80824289730944      2.74570255844974     -0.52052790365891
