21
Coordinates from ORCA-job 20269optt
  Br  1.14153461997070     -0.06827256090026     -0.38901002366118
  C   3.02381666687558      0.01579725539647     -0.20255744542135
  C   3.68120661334424      1.25550574026996     -0.20155114875475
  Br  2.78314061984878      2.89656645421739     -0.39050047754719
  C   5.06570353450756      1.27171445044749     -0.07207880084823
  C   5.71543721312441      0.02902309233972      0.04158229611873
  N   7.11991631180033      0.02340875687524      0.13405001358682
  C   7.81230449476755      1.16418204444932      0.39607931892092
  C   7.18302377746201      2.38064803766729      0.31979190873503
  N   5.82305121587449      2.40960973901015     -0.08329512366848
  C   7.85266813242591      3.57458931075236      0.61743693720399
  N   9.10261070826999      3.77896858016565      0.93149496391172
  C   10.02132804033305      2.79516527516137      1.03359957451752
  O   11.18712698391338      2.89382173329936      1.26626959520805
  S   9.46563888081390      1.02284871048221      0.81917433349136
  C   4.97064370231975     -1.12226086359790      0.04477909491809
  N   3.63897338176771     -1.12679575250194     -0.08057344251895
  H   7.58788674074718     -0.86330079600552      0.24466653110215
  H   5.33762850699229      3.29368090314982     -0.06191350613497
  H   7.24545807443670      4.47949835877777      0.57770781798552
  H   5.45190178040442     -2.08939846945597      0.14484758285519
