28
Coordinates from ORCA-job 20262optt
  Br  1.16338132753066      0.34163077030537     -0.02472260006771
  C   3.01703808450145      0.03782229764785      0.00902172506316
  C   3.58790386112452     -1.18228086742693     -0.08777677060419
  Br  2.55519185696811     -2.74075644191957     -0.30044575140247
  C   5.02582590028394     -1.24483085641283     -0.04807375004537
  C   5.73387188754350     -0.05651370597139      0.06805156205395
  N   7.06437722838647     -0.35703960302604      0.07304460588703
  C   7.20717870859109     -1.70747104504501     -0.05139735282882
  C   5.97316416275089     -2.31498860218223     -0.12787524824133
  C   5.73086406254966     -3.79343502515376     -0.23839303488365
  C   7.01230533822009     -4.62426014214194     -0.12987209591925
  C   7.82737101067488     -4.24263801768475      1.10876811670276
  C   8.87039113512376     -3.17125628573812      0.81750198842857
  O   8.45343204887678     -2.20199203339123     -0.15533986567058
  C   5.14957823652234      1.25165424999938      0.17373294978572
  N   5.69035371919160      2.40598808762565      0.29344031187759
  N   3.76165997692286      1.18049820568369      0.13867444283496
  H   7.83352062950792      0.29079582995710      0.10301935424281
  H   5.21198827453992     -4.02345014078408     -1.17096140774511
  H   5.05468919869997     -4.09942404855255      0.56423496802356
  H   7.62140288741401     -4.49906874930190     -1.02796778007589
  H   6.73102128436274     -5.67649833894846     -0.08230188838913
  H   8.36076690046907     -5.10618045522539      1.51059794976531
  H   7.14776898631021     -3.90385201689933      1.89445582314919
  H   9.75866534740996     -3.61509893161250      0.37031968605679
  H   9.16571990908129     -2.64852747594883      1.73122216509373
  H   6.70265687573300      2.34886037534920      0.31365326184351
  H   3.28691116070926      2.06831296679861      0.21538863506489
