22
Coordinates from ORCA-job 20271optt
  Br  0.97811061881113     -0.05476445855984     -0.25827334700633
  C   2.85744571113839     -0.07395133627824     -0.17097535861647
  C   3.61267360500992     -1.23445668208610     -0.14469632066573
  Br  2.81429076550587     -2.93938889669339     -0.17884242171487
  C   5.00639876508333     -1.16826524305653     -0.10911399699853
  C   5.66915863598593      0.04819647064159     -0.06915127756091
  N   7.03973637157485     -0.10771657620086      0.04288261704164
  C   7.36440384674883     -1.50740604108516     -0.18755849691294
  C   7.41046461829772     -2.01811804865705     -1.63921206937080
  O   6.24482906181614     -2.83540158877503     -1.43934398374770
  C   6.02262511632638     -2.27599565131553     -0.13623575070994
  C   4.93400089415814      1.24027940496494     -0.08597536359955
  C   3.53414858198936      1.14956836423862     -0.14353142436097
  S   2.89375472512300      2.74618232150008     -0.15987040707332
  N   4.37580228095652      3.48630918966580     -0.09158676378788
  C   5.33351354573020      2.61370587644792     -0.05482015565866
  H   7.64212895411732      0.60160712446138     -0.34606948971583
  H   8.17106849120765     -1.84745267821732      0.45570178872131
  H   8.27761418918792     -2.61762840379155     -1.91765346556834
  H   7.23891846418024     -1.23662720125139     -2.38457336219111
  H   5.86325227296871     -3.05231850824102      0.61162497892836
  H   6.35866048408239      2.96064256228869      0.00127407056858
