23
Coordinates from ORCA-job 20276optt
  Br  1.16105150861225      0.31614268479402      0.04395420331782
  C   3.03353415221161      0.09574650903625      0.05304111298977
  C   3.63869581414280     -1.15779447321733      0.04600263939262
  Br  2.58716940173556     -2.72578566081257      0.02298648616903
  C   5.02820575725316     -1.29403530994893      0.05462922025499
  C   5.80099334190271     -0.13108376594923      0.06582202132998
  N   7.19386830059019     -0.20661044716237      0.06928313388398
  C   7.91251211655586     -1.35605114045139      0.06112679770013
  N   9.20644461049431     -1.27841189014830      0.05950429240091
  C   9.93074580181530     -2.44999250761297      0.05244036063303
  O   11.13377236472574     -2.52500214942850      0.04836561023549
  N   9.16426258020449     -3.62358678374024      0.05005731006289
  N   7.84397306367155     -3.70677299355231      0.04992502988775
  C   7.17969562551212     -2.60507726753907      0.05494353110081
  C   5.67656183148443     -2.65558301563666      0.05367486772165
  C   5.20061174390757      1.12345875766539      0.07272246584493
  C   3.82590040431592      1.23451324424914      0.06768294490614
  H   7.73375280715313      0.64690205676468      0.07396923451784
  H   9.66459847082124     -4.49993080792710      0.04521511623080
  H   5.33425513168179     -3.22236749693010      0.92337379640920
  H   5.33614303800050     -3.22174143132554     -0.81687007153962
  H   5.81615938243878      2.01426129491633      0.08184611369300
  H   3.35609275076893      2.20780259395682      0.07430378285685
