24
Coordinates from ORCA-job 20280optt
  Br  1.09917917445384      0.38860301654928      0.48554155118727
  C   2.96606161938265      0.32838135919896      0.27768116231962
  C   3.75355789184689      1.41629340141154      0.21822619609035
  Br  3.00430453110401      3.15002976693845      0.26761234541919
  C   5.17891645158911      1.29958620263897      0.10050901694352
  C   5.84430046512892      0.13816991965941     -0.09383388202873
  N   7.20746697983323      0.29642439239405     -0.27049996704439
  C   7.54119729969473      1.67418797639573      0.08075665438827
  C   6.19387326658626      2.42458455611946      0.09118455788806
  O   6.10710161584609      3.29215688446958      1.19726723040468
  C   5.97868315331530      4.62753161205362      0.76241377833638
  C   5.89805983962954      4.53302350575441     -0.74296111281257
  N   5.74265620110315      5.40569389981088     -1.62643402964508
  O   6.04868164539589      3.22712153410446     -1.06856420154858
  C   5.24880227926722     -1.19318852027408     -0.18513412090448
  N   5.83670883804095     -2.28169102220494     -0.46078325580441
  S   3.52494381755057     -1.31478985886400      0.17648704931307
  H   7.78965040731338     -0.41945903030577      0.14230303747154
  H   8.22215680685081      2.12155095733022     -0.64086043850675
  H   7.96532779946346      1.73586689562639      1.08399422131165
  H   6.84843267898907      5.21420036871885      1.06653847867978
  H   5.07148162187739      5.07106169501908      1.17405441101807
  H   5.64662288689652      6.32753809841754     -1.20902757051199
  H   6.82283272884093     -2.14087761096212     -0.67047111196447
