27
Coordinates from ORCA-job 20284optt
  Br  1.19031822125195     -0.61247531319996     -0.81444784857031
  C   2.98022140021322     -0.16413867362764     -0.48867230671309
  C   3.47250780000700      1.09717855567595     -0.49393760799316
  Br  2.40626585602513      2.61350091851654     -0.80817131470146
  C   4.87433495497629      1.24868005437583     -0.28165784098351
  C   5.67025947386424      0.18026115011656     -0.03750384991084
  N   6.99339859472361      0.53473644287647      0.18908514732361
  C   7.13856514971407      1.91020356716123     -0.32426471920281
  C   5.71933598925525      2.49800998714412     -0.19602341256900
  C   5.51151528412833      3.18235412776345      1.14816819112693
  O   6.36183894937733      4.31163453642606      1.18934787494696
  C   6.26032683027638      5.01145638458033      2.39669328380752
  C   7.26154337282712      6.08364099667564      2.41180898937340
  N   8.03895203601665      6.92240452234339      2.45081458340048
  C   5.16201472787833     -1.17479037040604      0.03797828091644
  N   5.77861143074267     -2.26001828678493      0.30704977666973
  N   3.80110208647955     -1.23108781297766     -0.24680812811943
  H   7.68797661030759     -0.12735387844122     -0.12864115133807
  H   7.44091572115438      1.89797300488126     -1.37532181437568
  H   7.86877769091266      2.47584427498213      0.25066468717825
  H   5.50400146320158      3.21771461542714     -0.98626727158191
  H   5.76389788431884      2.49073117234715      1.96297479671331
  H   4.46501799371360      3.48857599549484      1.25984436600855
  H   6.44849668188052      4.35597696292719      3.25550885234982
  H   5.26656925828930      5.45765644960272      2.52104459031876
  H   6.75456992955278     -2.08759090535894      0.52314574452206
  H   3.40166460891149     -2.15907847852164     -0.22641189859654
