26
Coordinates from ORCA-job 20282optt
  Br  1.22175081920875      0.82943122855636      1.92404808020862
  C   2.87170876082461      0.48731845241859      1.06442933104915
  C   3.59544001692170      1.48468330436189      0.47762735080984
  Br  3.06900965266294      3.28445627699478      0.43383260064562
  C   4.82106404535673      1.12013383121938     -0.13565748151046
  C   5.80052732437245      1.81407727181946     -0.82014098573168
  N   6.74261739268751      0.89747564348692     -1.18041614561124
  C   6.43105104065549     -0.35296958784938     -0.76780713529127
  C   5.21974090198491     -0.25570206556570     -0.09815659736769
  C   4.37417264978013     -1.19281186142886      0.55279827538781
  C   4.74701218640957     -2.64157987437806      0.65807756602551
  C   4.79873377253960     -3.39302750137395     -0.66540255879652
  N   4.46116806313844     -2.95876807345167     -1.80804964615818
  N   5.26831759325466     -4.68202711533726     -0.50250545176634
  C   5.40973964969509     -5.67258600502530     -1.48094213264894
  N   5.17470776810712     -5.61008717560249     -2.71456780383184
  N   3.25417185353141     -0.81315265094098      1.09798349561746
  H   5.89115993903808      2.85609507773617     -1.06944704445553
  H   7.57346368734469      1.12424262006352     -1.70262103562322
  H   7.05444687869427     -1.19971091481680     -0.99774042842481
  H   4.02058453301473     -3.13138418755048      1.30839796131241
  H   5.73059997672895     -2.72654013118070      1.13284932944762
  H   4.13715440992166     -1.99739120303213     -1.75709044940134
  H   5.49233811986394     -4.96242331939618      0.43765712164628
  H   5.78367954264177     -6.59955946254024     -1.04498732040414
  H   4.82863942162067     -4.68719257718682     -2.97416889512712
