26
Coordinates from ORCA-job 20298optt
  Br  1.34956770048783     -0.46568327535354      1.91064493023754
  C   2.98529878328540     -0.30385230782206      0.97339490910584
  C   3.77543706987248     -1.36488916354864      0.70465694568125
  Br  3.16065801617051     -3.12657660211593      1.04545768201368
  C   5.13130185668084     -1.26697331172599      0.22309687601957
  C   5.84657747335763     -0.11194057860065      0.41628264584804
  N   7.16199337139071     -0.04915114545062      0.09575626956831
  C   7.96159898746751     -1.26329191903881      0.00466793709371
  C   7.13613870187800     -2.33231070304656     -0.65919514672243
  C   5.81408784234142     -2.33811311151168     -0.49675081024866
  S   5.16943064199364      1.35848662749433      1.04640880343736
  C   3.44067232995810      1.06883226175421      0.67099286053100
  N   2.82050531824631      2.08597631641619      0.26532700295595
  C   1.45632004785953      2.09095365383204     -0.11206747435245
  C   0.63267431208062      3.23391684225298      0.41872334828669
  C   1.05596024454894      3.22974065183553     -1.01067225300612
  H   7.62272527914125      0.84465664618333      0.12414102819030
  H   8.28855734973514     -1.59011750780596      1.00257545614965
  H   8.85480728863632     -1.03622326801570     -0.57573331689183
  H   7.63834610674038     -3.09565845901000     -1.23760370771867
  H   5.20959431922226     -3.11853302839782     -0.94005528310986
  H   0.95546463222084      1.14442119655507     -0.26201110734782
  H   1.13948965209988      3.90986676840642      1.09120986329866
  H   -0.39865999227471      3.02013317647874      0.65862000700147
  H   1.85073532996252      3.90159203466036     -1.29931438766855
  H   0.31471733689657      3.02173820557475     -1.76855307835263
