23
Coordinates from ORCA-job 20295optt
  Br  1.00966622377285      0.06077304864474      0.14474713355926
  C   2.87221324481817     -0.04738160739610     -0.00540000595191
  C   3.54847264933916     -1.21572825603537      0.02940517803578
  Br  2.64136401803847     -2.85952143534899      0.21040639220616
  C   4.98031920024271     -1.26915080111521     -0.07717281731647
  C   5.69880383910681     -2.40996287340304     -0.20181868291788
  N   7.04493960490078     -2.41214157083255     -0.31190414683723
  C   7.75063009986645     -1.21093692692874     -0.16489448691994
  C   7.08530900631748     -0.06161466896312     -0.01771971321587
  N   7.66937799824117      1.15800465099700      0.24660010913424
  C   7.04707350746266      2.38541608683805     -0.07174850578419
  N   7.67317769893294      3.48144950113776     -0.17634574278596
  N   5.67530459905246      2.33504650964437     -0.20027668684715
  C   5.06965264064647      1.19714539103403     -0.15509117972222
  N   5.67319302829015     -0.01498838049211     -0.08376305713690
  C   3.56858270781269      1.22933233855842     -0.17951318203536
  N   2.94294623404287      2.31985616899153     -0.31585704822255
  H   5.20102183020122     -3.36544857328994     -0.21852984783732
  H   7.54243115449519     -3.28284265600980     -0.33100297981826
  H   8.82629115923508     -1.25911167487545     -0.13606264720345
  H   8.67415955408216      1.16546760514054      0.31746314369002
  H   8.67514129706435      3.36255574537213     -0.04888116275060
  H   3.62292870403760      3.07978237833185     -0.40364006332219
