28
Coordinates from ORCA-job 20294optt
  Br  1.14050624985305      0.11959896027168     -0.73891280877044
  C   2.97721557992939      0.02879594452481     -0.34480656641512
  C   3.78779993084145      1.15717657410234     -0.25295653114699
  Br  3.00160058554778      2.86520697886833     -0.47710575416056
  C   5.15567435626505      1.07569203108003      0.02626946384050
  C   5.71409484866587     -0.19631779716626      0.25644071007916
  N   7.03866095331178     -0.33065618610462      0.61296681924836
  C   7.97180569646262      0.72415837268788      0.27617760342738
  C   7.41062279476680      2.06102424148668      0.74260981835265
  N   8.25424742578269      3.15116720331652      0.24740894628757
  C   7.52802763628148      3.90889715587762     -0.78472544411492
  C   6.39143485849180      2.98176073274917     -1.20313032656217
  C   6.02320819725260      2.30481084682190      0.12779752076359
  C   4.90826820119301     -1.32960095670727      0.16861027585212
  C   3.56141417825290     -1.22252024288425     -0.13280482403291
  C   2.79243712190908     -2.43163321192445     -0.21760134525188
  N   2.22169949327352     -3.42489492783896     -0.27520848856835
  H   7.39533424160349     -1.27165430563337      0.57489329684715
  H   8.16019907960680      0.77872457513139     -0.80291955563707
  H   8.92378717952436      0.53268462919319      0.76883324061937
  H   7.36018830717871      2.05361988134394      1.83314086173050
  H   8.58756506643419      3.74326898089090      0.99250296154765
  H   8.18515965665585      4.15723113743462     -1.61853312206579
  H   7.11683335118024      4.84348347317872     -0.38942930857053
  H   6.74326949991021      2.23262980312597     -1.91455674907166
  H   5.55996055607164      3.51443425368709     -1.65714866341784
  H   5.50326019652718      3.04371274153690      0.74351629757503
  H   5.33272475722640     -2.31080088905053      0.33867167161520
