24
Coordinates from ORCA-job 20306optt
  Br  1.09324749481117     -0.25524945656826      0.17144959693902
  C   2.92923842360425      0.08079975465266      0.08982509235980
  C   3.51578371297726      1.28720679676264      0.12943621151595
  Br  2.45670298545968      2.80828039319279      0.43406622108384
  C   4.97060791753709      1.34163660721749      0.04866141791854
  C   5.65442795511978      0.16034136680944      0.11138334279904
  N   7.02023582483486      0.10606782722669      0.15968461397586
  C   7.77494221958845      1.24581243072525      0.19743902637672
  C   9.25338787580958      1.08740581555436      0.41158177524407
  C   9.93482750873861     -0.07510033814051     -0.27218239727401
  O   9.39690266583339     -1.10396586118051     -0.58174626522493
  C   7.18106473404296      2.44779082558118      0.09766844182803
  C   5.74955024774373      2.59157461591782     -0.14596058104218
  N   5.18418415141837      3.66696084805117     -0.53687131214066
  C   4.96909515926062     -1.14241201416015      0.12595841477099
  N   5.44761174800374     -2.30437425143046      0.20100522232324
  O   3.61244684197206     -1.07341384486030     -0.00571214125110
  H   7.50583860401059     -0.76194437367151     -0.01728340475016
  H   9.45371772973782      0.93492000831491      1.48152392397699
  H   9.76511424688594      2.00970976462617      0.13852452489611
  H   11.01818766103504      0.05576198210304     -0.44079531656199
  H   7.78104163468387      3.34760518946818      0.13749604586173
  H   5.86832104396995      4.41537924564133     -0.63506928098618
  H   6.45652161292109     -2.32979333183346      0.28791682736126
