24
Coordinates from ORCA-job 20302optt
  Br  0.87887750468617      0.16648347764681     -0.16610586911302
  C   2.73941399246816      0.02212010597099     -0.07453016553052
  C   3.39417279851134     -1.14309527393621      0.05957475769567
  Br  2.47842346757456     -2.77889738654739      0.21700685352355
  C   4.83952976736901     -1.17272459663305      0.08607268436078
  C   5.60149025404258     -2.29250367994861      0.18037619137815
  N   6.95507955799647     -2.26342690224609      0.19004476968120
  C   7.68503678880382     -3.51875275312489      0.31734376538138
  C   8.27926289433705     -3.96286363270589     -0.94505716739810
  C   8.75872815911749     -4.32178884804048     -1.97994496113663
  C   7.70174378970849     -1.06351859283282      0.05240550189786
  N   8.97319096278041     -0.99682509947848     -0.01500731391259
  C   6.88824813410778      0.13117340975407     -0.00398740389955
  C   5.54487358774357      0.07546731395864     -0.00105524055942
  O   4.84956299395797      1.23845379049512     -0.08141523470834
  C   3.47973553435981      1.29578158584977     -0.16021275087968
  N   2.90483790210990      2.40471343443083     -0.28785768220623
  H   5.14672351019840     -3.26977961077131      0.25626888605183
  H   6.99429379721290     -4.27574736005606      0.68584829726219
  H   8.46256917850862     -3.39333968838786      1.07443674787523
  H   9.18567409872687     -4.63783118116724     -2.90226630713714
  H   9.44293184026085     -1.89504692336720     -0.02948608820691
  H   7.40822761450543      1.07403556620233     -0.07919784798136
  H   3.58637187091223      3.16091284493504     -0.32225442243837
