24
Coordinates from ORCA-job 20308optt
  Br  2.41857092178619     -0.80577825038497      0.98735306159050
  C   3.96456384603496      0.06745981292296      0.38213431763100
  C   4.14689303325469      1.38653920098461      0.32754788931670
  Br  2.78171647164936      2.56129274711106      0.89218400434609
  C   5.44642564665816      1.94232617873508     -0.13600824310484
  C   5.34759953967439      3.10699959314472     -0.82493005171284
  N   6.41251571516514      3.92323186696875     -1.14248448332784
  C   7.51061700773962      3.73316760290520     -0.37573997591782
  C   8.82479144155446      3.83390832236162     -0.57667295933250
  C   9.59070436182931      3.10398383041882      0.41711006230144
  O   10.75165512816493      3.25846565688926      0.70756402092255
  N   8.89588383176667      2.00748844034794      1.03135652768928
  C   7.91447564323358      1.10877851018513      0.62769309364862
  C   6.62627042966111      1.05052896394926      0.15652640681903
  C   6.30694879811503     -0.41799927815333     -0.06067837539486
  O   7.13637006451003     -1.27637907089853     -0.26843534097019
  N   4.98100158984242     -0.78143415440699     -0.00386610003993
  H   4.37296468818570      3.48739297646615     -1.09479137808343
  H   6.43099602382139      4.44013296781239     -2.00707163546665
  H   7.20979080919599      3.37288148916070      0.59610195078179
  H   9.32927134599664      4.24681938286570     -1.43682481797949
  H   9.58887156267281      1.53489601935029      1.59823548184809
  H   8.29588756170570      0.10555508300313      0.77791472586795
  H   4.79821453778163     -1.76725789173897     -0.11621818143263
