24
Coordinates from ORCA-job 20301optt
  Br  5.77899818030857      1.99271732660386      2.94845563058650
  C   6.08198701964768      1.74879164614972      1.11855983251577
  C   5.35479914250901      2.28829854207372      0.12995362038641
  Br  3.94652152589181      3.48440771103812      0.43774354618372
  C   5.68679673338881      1.90569167480718     -1.24162854013434
  C   5.97770268195208      2.77534497942923     -2.22952740411141
  N   6.05533297485059      4.14260565661214     -2.05939025597778
  C   6.88682882075269      4.58855231491814     -1.19868713901926
  C   7.85505684773073      3.77178541523966     -0.45305068793564
  C   8.18380256482457      4.04796485846472      0.81125540800137
  C   8.96288466087462      3.21259040980822      1.72528879483586
  C   8.97996393380831      1.90168725777248      1.99445855317457
  O   8.30692988078338      0.82974071900352      1.48462209897799
  C   7.22960267883017      0.94444704150096      0.66693831082375
  N   7.27084733538796      0.32445570419833     -0.43761185343028
  C   6.20535551195926      0.52268846973993     -1.35601712904377
  N   5.87123679380444     -0.30462867743128     -2.24469825727870
  H   6.20965874835828      2.38788753328595     -3.21755396880589
  H   6.86242370460186      5.65709399446651     -0.98645950271042
  H   8.20390248801244      2.85677076663451     -0.91914723941071
  H   7.82982319121941      4.98412478133820      1.23958745767273
  H   9.61382239754847      3.76421328756201      2.39494583337724
  H   9.65071094110398      1.53850624819335      2.76051382423550
  H   6.47001124185081     -1.12973766140919     -2.18955093291321
