21
Coordinates from ORCA-job 20311optt
  Br  1.56857334875572     -1.78071021875997     -1.50596787646572
  C   2.99953585212278     -0.74406100279525     -0.89229645869994
  C   3.31543651437733      0.47640241542346     -1.39148023622948
  Br  2.36794209158793      1.27852879645045     -2.79328217748384
  C   4.52563790510187      1.07298623986093     -0.91046509375990
  C   5.12672725337539      2.24749009069258     -1.29943864637474
  N   4.35593653967168      3.44922470128792     -1.28219336063880
  C   4.31478465501400      3.79040162983566     -0.05644244765521
  C   4.97010351970069      3.09535403584567      1.13764436580117
  N   5.29368382583668      3.80172271927791      2.14558014405049
  C   5.21026587742716      1.62850604200075      1.30021014045917
  C   4.98106377526317      0.64346550922427      0.40142121507300
  C   4.76984112408561     -0.75917446799199      0.82760506905487
  O   5.34044973623583     -1.34301583773549      1.71052218735712
  N   3.74833220044823     -1.35673986009513      0.09163734713622
  C   6.54222539380845      2.41855252668132     -1.22279678950836
  N   7.68059345039047      2.57899347825798     -1.26762323752612
  H   3.80301105744524      4.71708673309632      0.20315521127141
  H   5.07456982744414      4.78971172724942      2.00652432568337
  H   5.49720780651411      1.36531864738737      2.31318566091678
  H   3.49707824539346     -2.29304390519420      0.37750065753852
