25
Coordinates from ORCA-job 20312optt
  Br  3.87284808250988      0.39609008821578      2.75373468645150
  C   4.75015386573526      0.64902710578179      1.11650722544200
  C   4.18033018396393      1.12066839494291     -0.00520261518965
  Br  2.40613183318035      1.70751653505794     -0.10448573133132
  C   5.08514212535570      1.30368746070666     -1.15060162880253
  C   5.33604234802849      2.56073610789428     -1.55480465292055
  N   6.52839765758787      3.01871250304162     -2.13823815459083
  C   7.23679625538227      3.71039766486810     -1.09095495321193
  C   8.23874363496813      3.14264000451072     -0.42510559327138
  N   8.80283044707495      3.67148669316241      0.75955490598322
  C   8.83133717882354      2.90618640888262      1.77956249916294
  C   8.24288663742531      1.55124261259319      1.64805847825962
  C   7.02946864885819      1.16886921518212      2.05570992864642
  C   6.21319877696284      0.44156593668095      1.04893000389840
  N   6.77070370611195      0.04916734454850     -0.03819891694549
  C   6.11340821192324      0.23979790081346     -1.25497678866937
  N   6.48754511649475     -0.23420400060718     -2.37129299129722
  H   4.66208907715525      3.35509102409528     -1.24673357413792
  H   7.06967346517123      2.23829545725916     -2.50284227202586
  H   6.80446945095702      4.65404900159512     -0.78149889924390
  H   8.60136733904930      2.17731296375759     -0.77221044937323
  H   9.23125928196782      3.29544249225329      2.71216313966426
  H   8.66566134176093      0.96588257142457      0.83878968424338
  H   6.48714471226654      1.67609111509657      2.84436029066909
  H   7.27537062128520     -0.86775260175748     -2.22422362140965
