22
Coordinates from ORCA-job 20319optt
  Br  1.66559494913745      0.63263134976181     -0.75074574599602
  C   3.39140042665880      0.06601559794508     -0.25984197603844
  C   4.42693097935779      0.96755101285393     -0.01402936039179
  Br  4.19705046050795      2.82600622795573     -0.19120469099460
  C   5.67648000758623      0.47862880463536      0.33405635058850
  C   5.92480733738564     -0.89346049144951      0.47413408220356
  N   7.11423376071184     -1.43964247350870      0.97156958783263
  C   8.31195510865143     -1.03432108693317      0.88817903490799
  C   8.87108612727506      0.12684485046811      0.12674564544679
  N   10.10644909939536      0.14631947112057     -0.10683679731111
  N   7.92653454968720      1.09682260319404     -0.34667756263797
  C   6.88438265724540      1.32175941932843      0.59338854445052
  O   7.05603271594386      1.97872878976117      1.57332819932019
  C   4.86804362666028     -1.78900674471291      0.23407789170831
  C   3.62339200507045     -1.29458054189287     -0.14678976049920
  C   5.05301791134704     -3.19809195374966      0.36474468589869
  C   5.17037569072986     -4.38698460009952      0.45702130661527
  H   9.07538471743433     -1.62406550425656      1.39151525112184
  H   10.36235296958434      0.98388240569305     -0.63079142454111
  H   7.56445808912287      0.81339413686698     -1.25225262239224
  H   2.81928321768211     -1.99028960155999     -0.34008905485208
  H   5.28275359282464     -5.44114167142141      0.54649841556025
