22
Coordinates from ORCA-job 20315optt
  Br  3.46297565466565     -0.90734259605333     -1.46169245572720
  C   4.41768098550657      0.35794067595777     -0.47865439089690
  C   3.90572431348229      1.36415197226572      0.23791096004541
  Br  2.07776271753887      1.72501066761047      0.42398837789764
  C   4.90105893278723      2.25252597473611      0.87923234211169
  C   5.01639008980594      3.56326048637886      0.62768509085534
  N   6.02745037606600      4.40533531872034      1.06901860587187
  C   7.26277636963399      4.22941438918845      0.86363541899222
  C   7.86370442190068      3.06215028433732      0.14039489212853
  N   7.51316850691435      2.75160262622531     -1.02927437979603
  C   7.86296017117255      1.47840275573079     -1.56799242471606
  N   8.97442398256529      1.10909824554676     -2.02330538731178
  C   6.59459426876547      0.68926669120959     -1.65587525979774
  C   5.89408671184903      0.42999795349342     -0.55977375798699
  O   6.51859558446497      0.54092509742413      0.67308330497550
  C   6.03000316248550      1.51346405060458      1.50531995842215
  O   6.54939029736611      1.71818705753909      2.55489770683681
  H   4.23429437048170      4.07041681575407      0.07108042212301
  H   7.95278939662347      4.92913463245508      1.33329202172616
  H   8.53788804922991      2.44198988931684      0.74473384816751
  H   9.68075072210871      1.83752349395444     -1.91074619132516
  H   6.13853091458565      0.55854351760416     -2.62895870259599
