23
Coordinates from ORCA-job 20318optt
  Br  0.98169188513463      0.03781675321556      0.02234778651161
  C   2.85063073411197     -0.13596221246062      0.01609612316058
  C   3.49357089005898     -1.29427144689408      0.28713862633469
  Br  2.53774340921659     -2.79770808377042      0.88764898328501
  C   4.95580142760298     -1.34135570579252      0.27282013820065
  C   5.76671415099349     -2.44495058073112      0.26138043910422
  N   5.34806419718104     -3.75119181081342      0.06433321751883
  C   4.71988895144332     -4.07643738347393     -1.20773938162193
  C   3.91508454034973     -5.30039422854577     -1.10688078884697
  N   3.30083936792626     -6.26507405405144     -1.05211848133220
  C   7.20197396847263     -2.30961050111501      0.56860626099093
  O   7.89122003958794     -3.29849544693649      0.71190497568373
  N   7.72213793771605     -1.02388016824155      0.67528153673356
  C   6.94588162022367     -0.02495776365387      0.51477413615543
  N   5.59313685976347     -0.08391746070054      0.31202348334133
  C   4.90751410830669      1.07913085650950      0.00660490025945
  C   3.58898878266423      1.07876075339938     -0.20421919818229
  H   6.12674232449267     -4.36887805397130      0.27701563773829
  H   5.45468930527657     -4.21888416938021     -2.00767265956827
  H   4.05773308027134     -3.26675264546472     -1.51217799935220
  H   7.35125135053848      0.98268462780402      0.51334356081958
  H   5.51686468014828      1.96963567650577     -0.04634350953590
  H   3.07183638851891      1.98969304856279     -0.46016778739814
