22
Coordinates from ORCA-job 20328optt
  Br  1.48710608503889     -0.60925839275781     -0.30479874852689
  C   3.26809355223608     -0.01885240653537     -0.14171727744974
  C   3.61087800195902      1.29163183626580     -0.11899912804414
  Br  2.31973246657550      2.65787535412345     -0.18259157250435
  C   5.00805533310674      1.64384198140180     -0.01581715657642
  C   5.42668587884724      2.91220006306992      0.33438224379490
  N   6.63688676530667      3.21679371461825      0.83265154261512
  C   7.76298619974823      2.70138056653427      0.54795894658763
  C   7.90312256046134      1.83462639733405     -0.67074682568612
  O   8.58268679500574      2.11618229689489     -1.61841692090811
  N   7.21566564332388      0.66855664460434     -0.47285812535783
  C   5.96306079238319      0.56535600138444     -0.15627231496843
  C   5.43430601588144     -0.78952361110945      0.02047934642179
  C   6.39974512015799     -1.91040477437915      0.23340271723040
  C   7.18915891781060     -1.74280066279037      1.51283793660587
  O   7.06747285207760     -0.81671783598541      2.26297549479496
  N   4.17412820400015     -1.03479319965426      0.00057746757572
  H   4.70230127566046      3.71499127623199      0.37952130293667
  H   8.62453681220201      2.89947291300583      1.17939438225827
  H   7.12422230648033     -1.96810625084655     -0.58439776103768
  H   5.85880032753111     -2.85754192844241      0.27087211620677
  H   7.91036809420574     -2.55290998296825      1.72456233403160
