21
Coordinates from ORCA-job 20324optt
  Br  1.30475121468269      0.81495387069660     -0.12307626316883
  C   3.08175146822431      0.30943930100517      0.17476107289018
  C   3.63120125650230     -0.87232654481202     -0.17886671491664
  Br  2.59574531807555     -2.09129563911065     -1.16673241485631
  C   5.04249155019237     -1.16505701822098      0.09095331984275
  C   5.54738288075331     -2.45286903636812      0.08503164342002
  N   6.93503266393159     -2.53133783004069      0.21641049802727
  C   7.49018834549240     -1.77329204324029     -0.64635049987409
  C   8.37622161514811     -0.74382125005250     -0.04653261862154
  O   9.54856422038403     -0.56055338122851      0.00649778689596
  C   7.34599577569708      0.17299584620017      0.69349887407810
  N   7.80108431593499      1.02556956238251      1.50818108608655
  C   5.85313392610890      0.02330707537871      0.49474302359001
  C   5.18730001702649      1.15490260391017      0.83525415322080
  N   3.84356648873103      1.28713442300181      0.75405892644588
  C   4.79125749994617     -3.64723766553367      0.26448820936733
  N   4.24257977358466     -4.64035898068245      0.44234929683735
  H   6.95353970191982     -1.44817637967597     -1.54837848895112
  H   8.82371386651556      1.02871957031042      1.46464613883738
  H   5.72667674824696      2.00947021830169      1.21740546975599
  H   3.40182135290162      2.15083329777859      1.02465750109299
