20
Coordinates from ORCA-job 20339optt
  Br  1.19756121871906     -0.39275372082694      0.20217703836747
  C   3.03017117903578     -0.07583774824533      0.12676998926342
  C   3.62086611605736      1.13450430340078      0.10390421055934
  Br  2.60626267560202      2.71032828913123      0.15377155701970
  C   5.05754055466724      1.19180991640455      0.03655398924862
  C   5.75205112942110      0.03544092377593      0.01543899795511
  N   7.12658727634739      0.00666479565924     -0.03178814964307
  C   7.81253990729643      1.18356592116966     -0.00753399428515
  N   7.29805204276519      2.34489181818823     -0.00501410277605
  C   5.84204656331000      2.49509230626981     -0.01480883273494
  C   5.58271602732400      3.35497207650308      1.25681647089140
  O   5.25522110127771      2.85871086301152      2.28713774191223
  C   5.48738528459210      3.28120888031619     -1.21588477566736
  N   5.23079472914389      3.90109262490119     -2.14421767680980
  C   5.09778065316796     -1.26406241332155      0.04801713176455
  O   5.66783911546000     -2.31561173589865      0.03055142522027
  O   3.73374475304357     -1.22222945825253      0.09566068454980
  H   7.58251304838419     -0.89344013261771     -0.02401786722897
  H   8.89367609639848      1.09286041347857      0.00943972818758
  H   5.81165052798648      4.42679207695270      1.13702643420584
