23
Coordinates from ORCA-job 20335optt
  Br  0.97824008825327     -0.07698759734506      0.42095204317694
  C   2.84923354711502     -0.05176219521842      0.22100492106819
  C   3.57654514375591      1.08971075196758      0.31184493031111
  Br  2.68255687839097      2.71141569117828      0.68549907402392
  C   5.01275562983931      1.19265046025698      0.14546765831753
  C   5.77062440165554      0.08558088841524      0.00716895044429
  N   7.14943438591730      0.18262090271990     -0.09631233364536
  C   7.75342780474882      1.37017772842170      0.29193669410662
  N   7.15184023110578      2.46444762185419      0.44463858049705
  C   5.73283650320725      2.53132585198111      0.09868617874667
  C   5.63820732631629      3.18519501993184     -1.27386730485212
  C   5.69834188214600      2.40244454658251     -2.50849101598495
  O   4.47425649454962      2.93709695168180     -2.03079859720510
  S   5.18352461461698     -1.54132813335835     -0.02660443979322
  C   3.41324931575424     -1.37343196765023     -0.06811604330982
  N   2.70002134881792     -2.39618989155687     -0.28370467184794
  H   7.69567406496976     -0.66358289389582     -0.07227867311484
  H   8.82095853721624      1.29372239777565      0.47733922664734
  H   5.27266286395087      3.20801237393637      0.81688559386358
  H   5.99209394027635      4.21151984383991     -1.29718333163398
  H   5.77426375507785      1.32158567554261     -2.45229782825562
  H   6.08196424914482      2.86335140300129     -3.41116330853888
  H   3.24428699317385     -3.23457543006222     -0.47360630302140
