23
Coordinates from ORCA-job 20337optt
  Br  0.98943461223448      0.43330678583721     -0.22555463395495
  C   2.82256061138190      0.10687432096616     -0.09863860101124
  C   3.40094782317734     -1.10733996536693     -0.11864685610864
  Br  2.37334147443350     -2.66203297131851     -0.34574851000915
  C   4.83895310233522     -1.18740522698579     -0.01460638487500
  C   5.79106591130768     -2.15088418693758     -0.00944251747714
  N   7.05902322828425     -1.53457255779494     -0.04676080854213
  C   6.97831571729860     -0.14860494642892      0.01148490677489
  N   7.88785185012720      0.73537333898360      0.07600680653575
  C   5.52457276420310      0.10033845883915      0.00093059590662
  C   4.86313190390218      1.25089633894110      0.01771966222653
  O   3.50284059824584      1.27946171662539      0.00576715993755
  C   5.76211886161486     -3.60281026184656      0.00124780504691
  C   6.53990358479892     -4.51236805493917     -0.69001891553708
  C   6.10072360717202     -5.76855999509527     -0.23725615209342
  N   5.14315241923173     -5.65076220203436      0.66878223374485
  N   4.96368428005870     -4.34082219558374      0.80530952588302
  H   7.90303400682433     -2.04860985992090      0.14431407211136
  H   8.82172660051761      0.33202773810100      0.07764567748074
  H   5.30234086711918      2.23638921098379      0.04584091667080
  H   7.28423480376467     -4.29093464634389     -1.43545376306931
  H   6.43764144100793     -6.74749495668868     -0.53627865130549
  H   4.25939993095869     -3.99346588199211      1.43535643166450
