20
Coordinates from ORCA-job 20334optt
  Br  1.11392975783379     -0.74932327082662     -0.16325089550596
  C   2.90181595410169     -0.24711718951071     -0.06810631841230
  C   3.37201179158573      1.00637292465996     -0.13775300768627
  Br  2.24498170281796      2.46142372054490     -0.44629979464599
  C   4.80206099990530      1.18002742865162     -0.03474837320536
  C   5.73017796592637      2.20007689264753      0.00001813509739
  N   7.00470692853387      1.67343859927003      0.02712244346001
  C   6.87793901361338      0.38790779218507      0.02914754561714
  N   5.56114513240706      0.01457226582266     -0.00231551925496
  C   5.04921966323974     -1.29014961438289      0.04027907632510
  N   5.67191226870587     -2.37164284550038      0.05796087511391
  O   3.69233521700242     -1.33842358836439      0.08618267701086
  C   5.64010202278271      3.64752913060692      0.02849774315271
  C   6.58769083923211      4.57534237546255     -0.26027501804129
  N   6.02182461419311      5.79645384123746     -0.00853303807029
  N   4.85077834296617      5.65966001228489      0.40080245079213
  O   4.55826660840964      4.29535877521106      0.44708144194882
  H   7.68386854207949     -0.32613014220947      0.06662601997042
  H   6.67871045731244     -2.26190334969665      0.03785152903602
  H   7.59552217735109      4.45452624190646     -0.61028797270210
