19
Coordinates from ORCA-job 20338optt
  Br  0.99985969119530      0.18874352243976      0.05551729933258
  C   2.87748643509621      0.16843628615559      0.07170334101485
  C   3.62626619203179      1.28378648840448      0.08049161342510
  Br  2.79298533504729      2.98262400641901      0.08317880519616
  C   5.08250823675261      1.24859416512654      0.08583404690763
  C   5.81758198475588      0.05072728038173      0.08739547758602
  N   7.14356513370127      0.04313579211677      0.08843639169226
  C   7.75995647964973      1.20693918603693      0.08746075121614
  N   7.18289082744323      2.40159439334237      0.08788426785403
  C   5.86335925046718      2.41797998029393      0.08769940253017
  C   9.26605094072281      1.18390878207397      0.08477917801113
  O   9.91725472467428      0.18463670001230      0.08701029120529
  C   9.91299334307407      2.51612800687091      0.07783643568507
  N   10.45990983216783      3.52206980973755      0.07221929162189
  C   5.20610315915087     -1.31329480800702      0.08884975190719
  N   5.84460327060168     -2.39633500083679      0.09877002133147
  S   3.44710169350512     -1.47012338570962      0.07207540457325
  H   5.39173493764798      3.39118691397125      0.08839068502009
  H   6.85078853231481     -2.21373811882965      0.10546754388969
