23
Coordinates from ORCA-job 20349optt
  Br  3.02923835176261     -0.87008975338111      1.68783659015890
  C   4.48158667165041      0.02844336469872      0.93227604493973
  C   4.52292824021050      1.32377492462585      0.59204248624617
  Br  3.01617609858627      2.40235500706690      0.92118850248790
  C   5.70247712529182      1.91453593077247     -0.07217879129121
  C   5.62667664826776      3.14529916101698     -0.62215229859702
  N   6.57882107537669      3.79471494949528     -1.44860217819853
  C   7.36881447921820      4.79801952826952     -0.75061131960998
  N   7.07810804552366      5.99325236729387     -0.54533180532075
  C   8.52664512640660      3.98985249129175     -0.29001690865068
  N   8.38717688772137      3.30666498468994      0.76743390434751
  C   8.84148352235843      1.99164147425681      0.71072005516151
  N   9.63651380931074      1.33562347414025      1.41409831008396
  O   8.14446081978901      1.34722571950988     -0.32272105465192
  C   6.84595283877383      0.98302486220349     -0.01373947997310
  C   6.70119288444516     -0.27983429093153      0.38759384014646
  O   5.51922709134076     -0.81956512694911      0.76528710879394
  H   4.74600147374445      3.74097779685344     -0.43671015782304
  H   7.18579454343298      3.11503845145047     -1.89541427581007
  H   6.18079798051501      6.22399344461804     -0.97576902985669
  H   9.23818026231754      3.70984603892200     -1.07693405103225
  H   10.08516176758321      1.93637444746502      2.10231615979286
  H   7.52858425637294     -0.96916924737895      0.45738834865629
