27
Coordinates from ORCA-job 20346optt
  Br  0.87245188755367     -0.45218890576694     -0.13813279969558
  C   2.74161738288563     -0.32513955186685     -0.01450889841975
  C   3.56470208713343     -1.37894654687124      0.06599671909656
  Br  2.90601893640694     -3.14572139388594      0.07670238987474
  C   4.99645876471529     -1.23983969527969      0.14115341105763
  C   5.96806343803728     -2.17035098749517      0.23444507801649
  N   7.20395218111301     -1.55568968483850      0.27659375116696
  C   7.10554858978651     -0.17474127095183      0.19882485217336
  N   8.13614503460280      0.56797937179797      0.19864968220248
  C   8.00036803017219      2.00143475848927      0.11151360649679
  C   9.38823984775426      2.62005907023513      0.09235044824464
  N   10.10942010826284      2.21879063638058      1.27995485121060
  C   11.19132070967911      2.90722789264953      1.75318619929598
  N   12.07003981561547      2.53179659170844      2.58917598170645
  C   5.63921386438377      0.07600070456479      0.12156179182616
  C   4.97335632849849      1.23651282715512      0.06043155629568
  S   3.24659875301884      1.35892521216262     -0.02184990956924
  H   5.87601997402069     -3.24276212908953      0.27743150785210
  H   8.09391528191099     -2.02037606414562      0.31599082243568
  H   7.44938048997709      2.39443427441841      0.97706309986683
  H   7.46269604529590      2.29804034085726     -0.79930910267031
  H   9.31335776080921      3.70862701163066      0.07702746630570
  H   9.90081651173650      2.30068535980214     -0.82251865313862
  H   10.06432900417626      1.22722054345517      1.47344289886209
  H   11.25420242628017      3.92357846761954      1.36024817170617
  H   11.91835515324197      1.56647460006920      2.88424339866385
  H   5.45341159293164      2.20296856719548      0.06033167913659
