25
Coordinates from ORCA-job 20341optt
  Br  0.81996208176180     -0.07445262177126     -0.20047804276870
  C   2.71032999349382     -0.10569112363756     -0.11246776202318
  C   3.42909049659575     -1.29763367849167     -0.11926355885382
  Br  2.55823882576386     -2.96227218906561     -0.22387456917105
  C   4.82534966889295     -1.24064674515750     -0.05615383259670
  C   5.42952416273210      0.02438013548583      0.00713630236334
  N   6.79872919427664      0.12522398259687      0.05135708220457
  C   7.68106627190013     -0.94945756244764      0.03472512405465
  N   8.95090360217708     -0.86400682086932      0.08180336802754
  C   7.03046351790942     -2.25616460132310     -0.03493476890491
  C   5.70057926123974     -2.39689760659626     -0.07018295180553
  C   4.61337334899593      1.16322529085956     -0.00415290864644
  C   5.17857759422733      2.55400143147061     -0.03973286769365
  O   6.14185807218820      2.71487375140518      1.00650384167467
  C   6.62047250036424      3.97702712755282      1.17180779037339
  N   7.47070760366114      4.30585677184938      2.02670866445496
  N   3.29587235784307      1.07137952021609     -0.05533829914490
  H   7.18453316946453      1.03871797083951      0.24542894702225
  H   9.27737650418714      0.09979860357286      0.12605215415237
  H   7.69772365574418     -3.10634074040396     -0.04567832572981
  H   5.25522217260607     -3.38037771126017     -0.11410267246718
  H   4.35594445230038      3.25741778923290      0.08435395446900
  H   5.66691461605536      2.73702979975224     -1.00443380095849
  H   6.19863878078008      4.71095464904460      0.48446219006859
  H   7.76054809483897      3.51005457714560      2.59645494189902
