27
Coordinates from ORCA-job 20344optt
  Br  3.24271783195144      1.90343651235728     -1.22069574514514
  C   4.60117977440960      0.77187978696088     -0.59754967535118
  C   5.90401839166270      0.87457792740084     -0.94334238139823
  Br  6.52449674435120      2.20884106468071     -2.11248904604308
  C   6.83655984297782     -0.09155612647794     -0.40781545058006
  C   6.39049888481774     -1.09250291585838      0.42001344127741
  N   7.29306631806912     -1.96792342001341      1.01179097564393
  C   8.13332992860952     -2.46668454411571      0.20182582317091
  N   9.41354597021955     -2.84070005373855      0.53100018437698
  C   10.38241088376837     -2.21651533864130     -0.38214033724330
  C   10.51848168388765     -0.67238145653685     -0.24018525023176
  C   9.23237653472081      0.01535853130607      0.19431314555264
  N   9.00659323115493      0.46854061297034      1.35437909901240
  N   8.20910508395283      0.00531110672019     -0.74512587760334
  C   4.99441465066694     -1.16256382420520      0.84113277615384
  N   4.46750378727743     -2.00293084450838      1.63824346857281
  N   4.18018694751210     -0.19599652430625      0.25847740912928
  H   7.93649009799880     -2.52518362967045     -0.87186440650936
  H   9.60207109068994     -2.64840082779468      1.50998226345070
  H   10.06865645585275     -2.47148568803709     -1.39478497168823
  H   11.35713342208800     -2.67647713163186     -0.22901844476184
  H   11.27954782428686     -0.43634220398512      0.50346613142250
  H   10.86965601557548     -0.26738307259374     -1.19389595401204
  H   9.81492370634734      0.35021156176517      1.95756521159088
  H   8.45588518762972     -0.04268806284999     -1.72040317126425
  H   5.18237651994167     -2.63538765748211      1.98693992736798
  H   3.20477318957957     -0.24305378171445      0.51618085510955
