24
Coordinates from ORCA-job 20353optt
  Br  1.16053582635435      0.14323593872030     -0.18543931174816
  C   3.03852136834845     -0.00704957757523     -0.13907107612982
  C   3.68921512564876     -1.21904917583143      0.06678573533334
  Br  2.68771656834107     -2.80139541991511      0.31982479958090
  C   5.08786919391789     -1.26807089752359      0.08136719375864
  C   5.82929964713524     -0.10157530931250     -0.14153483130814
  N   7.22212116856847     -0.04351067636840     -0.20313724850636
  C   7.94293030411975     -0.91161642859443     -0.78306619580020
  N   7.55922274651434     -2.10207771311161     -1.37017787615128
  C   6.55145371743329     -2.96647343972620     -0.94601767786569
  O   6.31152474787108     -3.97611498193797     -1.54775547466069
  C   5.86347399552646     -2.53117287603095      0.32843245895810
  C   5.14875866161053      1.11421111623325     -0.29929338948999
  O   5.82511831478231      2.28094817942672     -0.53259796254403
  C   6.73858623235490      2.69105472758517      0.40610843456660
  N   7.45939663724126      3.69964694246718      0.26561518945109
  C   3.77240609967141      1.15775701413938     -0.31192393270195
  H   9.00553445895558     -0.70190956684982     -0.87930518127727
  H   8.17124393322392     -2.49868551564933     -2.07059234099645
  H   6.63089918471250     -2.33519648180728      1.08276488831979
  H   5.23240081964365     -3.34757197088310      0.65784102738095
  H   6.75886759523979      2.07823070847700      1.30329987214549
  H   7.30423139615674      4.14430892721006     -0.63955325747894
  H   3.27767225662821      2.10607647685790     -0.46557384283590
