24
Coordinates from ORCA-job 20357optt
  Br  1.19320468908684     -0.52814599452596      0.67356747134994
  C   3.04770121904236     -0.42472810412155      0.38621443797659
  C   3.79202968123420     -1.51503961463010      0.09340595537597
  Br  3.09143714471766     -3.25108019034678     -0.02782722477157
  C   5.20102116359920     -1.35471141823799     -0.13768122009598
  C   6.23029510174429     -2.16613795729428     -0.47927745034009
  N   6.30851229899166     -3.52995990693466     -0.73231269198920
  C   6.44140201595599     -4.45507919118964      0.27775760477280
  N   6.69784057689102     -4.28394321051601      1.50578955463676
  C   6.23013563776231     -5.87259096414676     -0.18381257912480
  O   5.89911199326540     -6.13664837439974     -1.30529524253854
  N   7.38224996103845     -1.36082091541690     -0.52125146776867
  C   7.10555109496472     -0.04382333920367     -0.24544725033581
  N   7.80397945828482      1.01960499016903     -0.19048520308957
  N   5.72758282739700     -0.05913110341214     -0.00035864583163
  C   4.96463903773831      1.03430585367938      0.30393798642507
  C   3.64289711377479      0.88723893221628      0.49478158477373
  H   5.94690296420513     -3.90167208116235     -1.60141323501399
  H   6.78640672238803     -3.29587357021826      1.74812347294926
  H   6.38549308047372     -6.62915551916197      0.59981149291057
  H   8.28767893801156     -1.69992004460207     -0.79600984807198
  H   8.78213584630637      0.85413759406053     -0.39483399753801
  H   5.50849021406003      1.96583066151653      0.36666797673406
  H   3.02230121906601      1.73534346787915      0.73494851860508
