24
Coordinates from ORCA-job 20359optt
  Br  1.15046664144410      0.13941416212077      0.26032594775165
  C   3.03260248512925      0.16037591967035      0.09551524102497
  C   3.73198245477739      1.37110738736882      0.03186242322774
  Br  2.91874365591033      3.06582349954674      0.08061046771493
  C   5.10471964155416      1.30683265562984     -0.07320757183535
  C   5.77726935103926      0.07770072997015     -0.11785939766974
  N   7.11943665505802      0.36590492874713     -0.22732059574001
  C   7.33517120473666      1.73912502072012     -0.25109962693026
  N   8.39693240741514      2.42873383074946     -0.33274522336345
  N   6.06145654903249      2.28834097505971     -0.15889940786546
  C   5.09374839365215     -1.12483641375511     -0.06248051805530
  C   3.69928394389194     -1.05087732533869      0.04842671977916
  C   5.79595086009830     -2.40613170660407     -0.11664996570866
  N   7.12447556116340     -2.44665315680656     -0.18683935222425
  N   7.43141594953275     -3.74335259209354     -0.22319435274509
  C   6.34609073892598     -4.54084376502730     -0.17952456723276
  C   5.25618083114662     -3.71283950818906     -0.10877321406203
  H   7.83115368035922     -0.34612943723313     -0.26267200983967
  H   9.22370269430318      1.84534408275257     -0.39555422894380
  H   5.90171362849316      3.28124346959063     -0.14885910778374
  H   3.11907378482065     -1.96091189464720      0.09952082014201
  H   8.39609355465285     -4.02042068768672     -0.27910804900127
  H   6.43115123667580     -5.61379318872149     -0.20244549988727
  H   4.22318409618714     -4.00815698582342     -0.06302893075234
