24
Coordinates from ORCA-job 20364optt
  Br  2.47696362573372     -1.05310214131811      0.94878462645633
  C   3.78558436795890      0.11158799403314      0.29201192609490
  C   3.56041469431240      1.23890485102302     -0.39341412370317
  Br  1.84969745075567      1.86027095268064     -0.82829575271962
  C   4.76155883568186      2.01292296666067     -0.74610410324281
  C   4.92331589512537      3.33334416992952     -0.60949846370261
  N   6.19520438494272      3.96806426282938     -0.81896090906501
  C   7.09020144905291      3.87539069559554      0.32794589053948
  N   7.47536863698316      4.85769025239313      1.00819668174443
  N   7.42581657925262      2.54890943101819      0.63286137132035
  C   8.40093052858045      1.96971484364391      0.09229522773552
  N   8.49506420464957      0.58604085805587      0.01264980560521
  C   7.46160434799071     -0.33486232040861     -0.08190637120556
  N   7.72929680362892     -1.57233936021602     -0.04254801243482
  C   6.08681028635160      0.24903394632502     -0.25850651714308
  N   5.10025475391015     -0.27716876441141      0.53543799027316
  N   5.89780190825830      1.23003291837159     -1.04079194738636
  H   4.10139856984102      3.97060707248175     -0.31143817689783
  H   6.65145478842654      3.46501036221483     -1.57782293679163
  H   7.06111818026839      5.70589731197136      0.62599329083330
  H   9.22684662124273      2.48952763412113     -0.40162801155552
  H   9.40724922459279      0.18057464316431     -0.13775073300496
  H   6.90009911610011     -2.13720994667385     -0.20771025871635
  H   5.30394474635928     -0.98084263348505      1.22719950696664
