22
Coordinates from ORCA-job 20361optt
  Br  1.10447494045305     -0.55794662033719      0.08835761250121
  C   2.91384283424365     -0.11430114354137      0.01466197438993
  C   3.45690957059851      1.07296386761932      0.32180835772011
  Br  2.37039618657157      2.41710404245489      1.06730280283517
  C   4.90265451957703      1.21992660521840      0.21129483874819
  C   5.64282012370753      0.08946025834820      0.00391152725877
  N   6.99474241271672      0.14053742897111     -0.00084355218324
  C   7.70584652646166      1.29203163152490      0.38360998103271
  N   8.91614417459647      1.31368146745790      0.74441138561668
  N   6.97036617621347      2.46564812812832      0.27374871194369
  C   5.69437426227676      2.45638006118904      0.19787884598980
  C   5.02974777810038      3.80390796882667     -0.01429250273981
  C   5.94893873251702      4.80390229900842     -0.55242615030000
  N   6.60168600478428      5.63154642526296     -0.99735369515622
  C   5.00792934866968     -1.21522029114950     -0.26445844323528
  N   5.53438094387108     -2.34103506634894     -0.44843025330434
  O   3.64824378746328     -1.17038322947584     -0.38138051366349
  H   7.52588004313422     -0.69167421926308     -0.20070970872652
  H   9.32370748028836      0.38339687410251      0.79654560434834
  H   4.63231515742684      4.17239329749319      0.93301066234736
  H   4.18323219038132      3.71370600066384     -0.69521248297507
  H   6.54436680594703     -2.34602578615377     -0.37443500244799
