22
Coordinates from ORCA-job 20360optt
  Br  1.12382500119496     -0.40461922998366     -0.32692917151131
  C   2.98290106323664     -0.21262378492173     -0.15539968468666
  C   3.58388616531670      0.99574460706180     -0.07086766828488
  Br  2.67179583812036      2.62430395672772     -0.07841186530216
  C   5.01282872895512      1.01921434499329      0.01992183454686
  C   5.96901124866853      1.97690564184787      0.10189978230455
  N   7.20184982782390      1.30567344087835      0.13511206558646
  C   7.06923336221692     -0.05257105355995      0.03248397250257
  N   7.91217186954869     -0.99814203813286     -0.04900687688459
  N   5.66551570779614     -0.23362511258220      0.00373792907926
  C   4.94512327206155     -1.40111722595199     -0.02449808361265
  C   5.65606257793364     -2.72647823235802      0.08615908804291
  C   6.18027436044128     -2.92099287171326      1.43909338554497
  N   6.55358053544886     -3.07591354341774      2.51021133002951
  N   3.66600384761415     -1.40422490749592     -0.10961724756674
  C   5.92090734758069      3.38475412219802      0.12599729563470
  C   5.97509958341398      4.58333693344245      0.13987710469233
  H   8.08997705055667      1.77558356195467      0.15267271861312
  H   8.86873637362825     -0.66824119647631      0.00633449639818
  H   6.48836368594956     -2.78505342579816     -0.61290361975176
  H   4.91363977396068     -3.49404885634299     -0.12259806312677
  H   5.99721277853267      5.64713486963061      0.14773127775209
