25
Coordinates from ORCA-job 20363optt
  Br  0.86041307240133     -0.21978740603260     -0.43769083851795
  C   2.71511126401567     -0.06768990457139     -0.28096999126011
  C   3.36003692902476      1.07614529682146      0.04561454319663
  Br  2.42042004014652      2.66991271068830      0.38814397231984
  C   4.78729410361665      1.12845000907580      0.15534173438357
  C   5.44782514544182     -0.01387546637595     -0.10240805541960
  N   6.80462786575040     -0.12041293079505     -0.02670152433265
  C   7.64200126672085      0.98897777607903      0.10773920302689
  N   8.91299496434733      0.93262076444809      0.10769688365171
  N   6.98391309993864      2.19352385924988      0.18952962061731
  C   7.81526812794491      3.32050514839218      0.52255234958349
  C   8.24872331810106      3.32299274436613      1.97593303132958
  O   7.84442113004301      2.54270582151742      2.78834352506602
  C   5.58549257807080      2.31759276546942      0.59645911928991
  O   4.86033053092413     -1.16339371683095     -0.44838468803593
  C   3.47343180791255     -1.29052983957892     -0.53409789243113
  N   2.96914906947988     -2.40486726299489     -0.82030465923882
  H   7.22256634233635     -1.01391111270562     -0.22811765258018
  H   9.25731995360713     -0.01195758851958     -0.02281518042017
  H   7.26674586127206      4.24685272787318      0.32734148809664
  H   8.71165085126795      3.32513324732051     -0.09829414477711
  H   8.96771501666351      4.11862591900565      2.24976822220552
  H   5.19163192975549      3.22154663951376      0.12900438721854
  H   5.51350654454416      2.45011509911524      1.68342311276674
  H   3.68440918667294     -3.11527530053114     -0.95410656573875
