21
Coordinates from ORCA-job 20369optt
  Br  1.21267378440088     -0.13200471050661     -0.08392611379526
  C   3.09683951611903     -0.03675081492822     -0.08965828456893
  C   3.75481728599947      1.19278972045959     -0.09459482717244
  Br  2.88953693290682      2.85503139782614     -0.09807927296183
  C   5.13814861714319      1.13735214103200     -0.09710167116982
  C   5.88658124971317     -0.03893676247578     -0.09519877950715
  N   7.23655226175399      0.29906039096500     -0.09840026066531
  C   7.23174795740541      1.57709973644612     -0.10208076836209
  O   6.01039749568598      2.17517102871187     -0.10167294778450
  C   5.21996771505590     -1.25472394730746     -0.09072648958954
  C   3.81415613091566     -1.22877525280550     -0.08811824157013
  C   3.23242460289848     -2.63602913571470     -0.08312817147559
  C   4.49324482042764     -3.43272001968134     -0.08326900472033
  C   5.61790970120847     -2.65410025343973     -0.08761124941622
  N   6.71863048930399     -3.44559430764760     -0.08766617730118
  N   6.32006991950172     -4.67121302135737     -0.08355809726409
  N   4.96845164138557     -4.68307719028544     -0.08078947797349
  H   8.08199316776397      2.24025780081530     -0.10512883032502
  H   2.60754525383886     -2.80995818691751     -0.96172987421614
  H   2.61094675717595     -2.80494538143454      0.79884656427211
  H   4.49436469939584     -5.57093323175419     -0.07740802443306
