25
Coordinates from ORCA-job 20368optt
  Br  2.75316032276409     -1.33637861093801     -0.73975182918123
  C   4.05238120452804     -0.04620758333853     -0.31866291735052
  C   3.77621018840678      1.22216057437790      0.03095839182472
  Br  2.00338538199669      1.85261511902146      0.12581043469168
  C   4.86932837012878      2.13753132936468      0.34898244102354
  C   4.76509419379281      3.47733248481007      0.35006928263890
  N   5.81602670857570      4.37926849308281      0.44428792450612
  C   7.15542161339770      4.15716538445372      0.12766614852895
  N   8.15518401593480      4.62245040589455      0.73922302075150
  S   7.38355304596129      3.21478491376244     -1.37250799757003
  C   8.81704104162249      2.28856558417668     -0.91410477449088
  C   8.79857726357156      0.96344880249594     -0.75330881571513
  C   7.63582298123004      0.07345218829760     -0.82081237321605
  C   6.44702307119437      0.29376395899998     -0.24234272659851
  N   5.34626904341494     -0.54026105771534     -0.42072350841261
  C   6.14032257839643      1.43714280103040      0.66576289643448
  N   6.82009366951094      1.76164585720833      1.68217299620754
  H   3.79133684253212      3.94047902331039      0.24921124066813
  H   5.64125498649603      5.22103255894612      0.97332167154167
  H   7.88672811538596      5.05991494717748      1.62040921185509
  H   9.73645833566030      2.84944654708907     -0.82149412980935
  H   9.76077675280938      0.48224887155340     -0.59624493291246
  H   7.75716539935875     -0.83718767756378     -1.40069940849281
  H   5.46290554278294     -1.33957314847931     -1.02502602538236
  H   7.65047933054702      1.17415823298193      1.76780377845962
