22
Coordinates from ORCA-job 20370optt
  Br  1.76601582318183     -0.02789199529306     -1.00598216695274
  C   3.55312310162697     -0.17625664413752     -0.48460262908266
  C   4.54801943286544      0.62783898816507     -0.92294018648972
  Br  4.16298083360532      2.01447298791435     -2.13563849870951
  C   5.92050350324972      0.44454608764633     -0.48870083567620
  C   6.16508930434279     -0.56773214796828      0.39659959420560
  N   5.17356449946750     -1.42649791913708      0.81546625123933
  C   5.49154610401200     -2.61387131100678      1.55793415782314
  O   6.60700870637375     -2.99217956762396      1.71043369928781
  C   3.81292984538328     -1.27318006904097      0.45148243109269
  O   2.96717601647036     -2.01626227810493      0.88287459536118
  C   7.52654434787519     -0.62737167051016      1.01551975346844
  N   7.81549120155254     -0.24430153278859      2.17750899612891
  N   8.50067892949775     -1.07893169230827      0.12221190251110
  C   8.86679054804873     -0.29174039834958     -0.80759902052979
  C   8.28644616139485      1.00986674308762     -1.10675662648599
  C   6.98440686103700      1.31740796939034     -0.96729524720651
  H   4.58773452683978     -3.10620676500487      1.92179990221585
  H   6.98520812260229      0.04140365640743      2.69464555881989
  H   9.67627591577544     -0.63221877679737     -1.45139299257775
  H   8.93756170498152      1.74041098775775     -1.57090453244306
  H   6.66890450981588      2.28969534770255     -1.31966410600000
