21
Coordinates from ORCA-job 20375optt
  Br  0.84597408428234     -0.31137947083338      0.11862076047642
  C   2.71801031225407     -0.22670780583112      0.00639654838448
  C   3.46749718906682     -1.40362692040917     -0.03944262283396
  Br  2.62538966706537     -3.08684210793573     -0.00939962857086
  C   4.86181512093159     -1.35676723918428     -0.10865695467015
  C   5.44147988838823     -0.07564857719108     -0.12961210434004
  N   6.80291167372959      0.04408207260423     -0.18903985710654
  C   7.70707989744483     -1.00380769954005     -0.23848600199017
  O   8.89927109118226     -0.80432838318852     -0.29017343548554
  C   7.08058029810847     -2.33068088416592     -0.22149265303885
  C   5.75027839033665     -2.49282061757280     -0.16032006987589
  N   4.74392740847453      1.04479922582635     -0.09759360857093
  C   3.42228452022243      0.98840153479383     -0.03195568358112
  C   2.77413487659606      2.35738417886293     -0.00978992450251
  O   1.59207401824582      2.54379266275166      0.08065554391338
  C   3.69763547378764      3.48420238869640     -0.10863319103354
  C   4.37025849957809      4.47189709636939     -0.18261110581628
  H   7.18374468960889      0.98180636951723     -0.20300902936367
  H   7.76049813992205     -3.16982547658665     -0.26003272415119
  H   5.32150064120582     -3.48499428620496     -0.14823855360511
  H   4.97165411956833      5.34806393922164     -0.24918570423794
