19
Coordinates from ORCA-job 20386optt
  Br  1.18606121083536     -0.23593396425414     -0.24378954586226
  C   3.01404940464709      0.07082036349143     -0.06738235947165
  C   3.62731921055028      1.26936620145586     -0.14572422652136
  Br  2.60837306219700      2.82441917850112     -0.38965319121020
  C   5.07294718882693      1.27866115474692     -0.07200795959222
  C   5.74846614856653      0.11015814764031      0.07262633174433
  N   7.13861983333846      0.02534455514196      0.09337607058230
  C   7.80098411485561     -1.11961442652878     -0.44839699649385
  O   7.23198779966997     -1.92536814290448     -1.10985212131488
  C   7.93145321419545      1.16398848645020      0.27959066095517
  O   9.12193268496553      1.12510329198032      0.42702063664097
  N   7.22129435532261      2.34185701446233      0.22760435244977
  C   5.88148640887196      2.53741646145992     -0.08852057661400
  O   5.46468992040161      3.64303058229685     -0.28847273742258
  C   5.02402371466832     -1.11871701452108      0.43856466633314
  O   5.48135865419998     -2.07491119503835      0.97042894069702
  O   3.67632229347625     -1.06770796404748      0.17563062833875
  H   8.86736549009815     -1.11417601479529     -0.20953906726694
  H   7.78026529031282      3.18326328446236      0.29649649402850
