20
Coordinates from ORCA-job 20383optt
  Br  1.05595114990914      0.18514168183976     -0.21188461481013
  C   2.89255639397123     -0.05636758791704     -0.07085650674108
  C   3.50580480308274     -1.27919231100063     -0.04111797680682
  Br  2.59056914156928     -2.90318350798985     -0.15393761169744
  C   4.90631761065067     -1.26855572234506      0.07331078441846
  C   5.68719052926083     -0.14462187610267      0.14693185416874
  N   7.01861797010699     -0.51284663619697      0.25340876155787
  C   6.95862930191473     -1.79485895815491      0.23685770118965
  O   7.93451434954999     -2.68591125115307      0.31092378782729
  C   9.24489567201139     -2.20817256721427      0.30757451484670
  N   10.21934992481021     -2.97227424155179      0.40704121922011
  O   5.73447906618795     -2.34841877421702      0.13127140831173
  C   5.04988185621242      1.11186565439328      0.10860670153695
  N   5.45831638193005      2.36313372506722      0.14873290734044
  C   4.30372763248557      3.05351776535259      0.06675341815594
  N   3.19735966160592      2.33923743965846     -0.02179929878910
  N   3.66578470288362      1.07627860749258      0.00356293463876
  H   9.31301113879921     -1.13038702304433      0.20730586348423
  H   9.93927292936942     -3.94945974961895      0.49519933546613
  H   4.26276978368856      4.13107533270267      0.07011481668154
