22
Coordinates from ORCA-job 20395optt
  Br  1.22017602925039     -0.47541096261476      0.56574054486537
  C   3.08387900153585     -0.25618758867729      0.35351527899702
  C   3.62272958124243      0.98870034648885      0.04363599735173
  Br  2.61047048333058      2.54628482597874     -0.20264891070850
  C   5.00511006333531      1.04271777255069     -0.07596348900365
  C   5.78324756099022     -0.11149117663889      0.10182984169486
  N   7.14283075337465      0.07255998493026     -0.04142611178023
  C   7.39071920185846      1.30089817149967     -0.31486182250427
  S   6.02620418695571      2.37890615979260     -0.43395909460417
  C   5.12912851162114     -1.30814618128028      0.40104416786475
  N   3.81505207730965     -1.34441393705174      0.52552781643556
  C   5.88383695192135     -2.59822956423447      0.58487090784175
  C   5.49853158311673     -3.37024082175848      1.84871330703593
  O   5.52428746163806     -4.72162028748776      1.40892682629470
  C   5.41247618018804     -4.75575759210743      0.05650697160240
  N   5.24072839902324     -5.76103948931786     -0.66331154507318
  O   5.52861731119852     -3.50878899246740     -0.45062502808347
  H   8.38921445761400      1.68719997504279     -0.47047167507552
  H   6.95566822932417     -2.40509244745899      0.53024507016942
  H   4.49160236877810     -3.11197916959489      2.17708385768072
  H   6.21402987719407     -3.24801480882501      2.65779274919584
  H   5.14145972919929     -6.59385421676834     -0.09216566019707
