20
Coordinates from ORCA-job 20399optt
  Br  1.37796350951566      0.26982381193656     -0.08539286969112
  C   3.23558076205862     -0.05495032602211     -0.01858475846781
  C   3.73809533449240     -1.32271878722095     -0.07216959792682
  Br  2.70399722126344     -2.87617452535494     -0.23716524065982
  C   5.14811953783757     -1.44707922217525     -0.00890489954366
  C   6.05588573108485     -2.48359711941829     -0.02620208406296
  N   7.27243740128910     -1.88432873949637      0.04338579579769
  N   7.23941786009053     -0.54611088002370      0.11052917681173
  C   5.94338601897558     -0.26745347743862      0.08439134907032
  C   5.29094812898718      0.99702735466871      0.13160751267065
  N   3.99912044513626      1.06888958318067      0.08350794773469
  C   8.52542417513240     -2.54014727063641      0.04327882335087
  O   8.62061294296932     -3.72515500201056      0.07178798380848
  C   9.73293181066613     -1.59296487870305     -0.05927376092469
  O   10.17999515790131     -1.34276768708444     -1.14031505724666
  C   10.28222543360659     -1.14455980084539      1.20053197571861
  C   10.69315163427236     -0.80106371075528      2.27134342461724
  H   5.95902471996109     -3.55355374101493     -0.08703310671798
  H   5.85713900024495      1.91888048138875      0.20422089748585
  H   11.07154317451459     -0.48399606297437      3.21545648817541
