22
Coordinates from ORCA-job 20393optt
  Br  1.17497549445740     -0.40421438363900      0.42999143536184
  C   2.99473628590429     -0.06846611337130      0.22416664428963
  C   3.57538745796789      1.14731436777149      0.20273163128993
  Br  2.58695514658378      2.73064130416141      0.39706771751589
  C   4.99574358454037      1.21163505305500      0.01462478654584
  C   5.70198830444776      0.07209415922066     -0.10932037975800
  N   7.06902722681220      0.09399872055446     -0.29966188590754
  C   7.83671345283430      1.19591941990907      0.01303044278355
  O   9.02841558755779      1.18712409971015      0.04658626819467
  O   7.12757614314021      2.30587840354631      0.32610977707364
  C   5.78224240483839      2.48342291100538     -0.13047370787879
  C   5.77318873186744      2.95401131657127     -1.58817954707891
  C   6.46422693066915      4.28743900997767     -1.75841359493718
  O   5.95482060407390      5.21250370958220     -2.32414425508285
  C   5.06794156545865     -1.23322366116680     -0.07933334638064
  O   5.63226799433262     -2.27865526986448     -0.20049233043266
  O   3.70484933278833     -1.20074568126054      0.08780272604955
  H   7.55121979722941     -0.78945380397464     -0.39805370469639
  H   5.37608653920581      3.25740021110243      0.51939903257365
  H   4.74879670566534      3.04357207316413     -1.95115399186744
  H   6.29562185500744      2.20491516212745     -2.19401290795065
  H   7.47721885461747      4.36888899181767     -1.32527080970713
