20
Coordinates from ORCA-job 20406optt
  Br  1.05647521932115      0.32308237296273      0.09016092419806
  C   2.91877646532634      0.13549368115158      0.01687127579197
  C   3.57863064221126     -1.07451112027658      0.08998215666430
  Br  2.68456757478723     -2.70600036912331      0.28135772088894
  C   4.98870898280080     -1.07486962990884      0.03041490767297
  C   5.73893384601663      0.09740429092861     -0.09305081643797
  N   7.01620563870156     -0.33959215042994     -0.10351361540415
  N   7.05617663012699     -1.67906351831420      0.00340738475406
  N   5.86659796279947     -2.13012798094410      0.08430269931987
  C   5.08509147965015      1.32835252410398     -0.16189621428731
  C   3.70761389626743      1.28700397974236     -0.11051359995067
  O   3.26812039301266      2.58015096929109     -0.18555832755709
  C   4.40103128762990      3.29710655002127     -0.26685816101331
  O   4.19198448437526      4.60360446560134     -0.32985693620794
  C   5.30468406233192      5.44015907761858     -0.32576101517478
  N   5.19604980474954      6.67767702490162     -0.35528697182660
  N   5.50942064304080      2.64706214924404     -0.26466108295551
  H   7.87322594801085      0.18279713800566     -0.17875276748086
  H   6.24752434733881      4.90542816546577     -0.29282536933558
  H   4.22218069150123      6.98084237995830     -0.38296219165840
