21
Coordinates from ORCA-job 20405optt
  Br  1.04377027530211      0.45068486726418      0.37192576189566
  C   2.86043212184156      0.08615931986332      0.21915602902110
  C   3.41438762748071     -1.15499710710418      0.19349327532369
  Br  2.31315511138217     -2.67090193550484      0.29235113522393
  C   4.83429704130127     -1.31231049797969      0.06637682585562
  C   5.64755998560317     -0.20899064864861     -0.03585068495765
  N   7.01017016691717     -0.25093378878163     -0.14852084711558
  N   7.78502405042784     -1.33149618386798     -0.05124075952731
  C   7.26696675493820     -2.48860585585904      0.02611844192786
  S   5.55840959327293     -2.91565491976504     -0.04533543775702
  O   5.29959016609071     -3.46152340614927     -1.34566888781702
  O   5.25791390653792     -3.69487357747615      1.11955702560746
  C   5.05595718858870      1.08696811432023     -0.01547732340477
  C   5.53175717109765      2.38500791226702     -0.09377326936159
  C   4.38138602879321      3.17291285784678     -0.00269707845167
  N   3.27556848192891      2.44928626978580      0.12320184822797
  N   3.69172778667666      1.18288718246912      0.11418104961752
  H   7.52241126346304      0.61450158752405     -0.16308782620615
  H   7.92157037375446     -3.34814137390939      0.11540835695667
  H   6.54911947898774      2.71816192590996     -0.20387628014434
  H   4.30482542561382      4.24785925779537     -0.02424135491438
