23
Coordinates from ORCA-job 20403optt
  Br  0.93092921818599     -0.23193334862134     -0.34626716251800
  C   2.78011227680324     -0.03081918794490     -0.15146014004496
  C   3.42666193473425      1.16928147889933     -0.12889341999338
  Br  2.43002883568218      2.73882161807629     -0.37563981144300
  C   4.85528612473779      1.24353164532341     -0.00130964734733
  C   5.54530516803946      0.04353041531326      0.01874372016815
  N   6.90699585519176      0.00514612261277      0.01548299208697
  N   7.68182840059103      1.10055273000792     -0.11214394465946
  C   7.10341319278972      2.23541080958257     -0.06078850951809
  C   5.66385119595586      2.46192349971912      0.14412474051926
  N   5.19206584972625      3.60509350804213      0.45263368394303
  N   4.89994185844091     -1.16154897427868      0.05439050703666
  C   5.64382725406043     -2.40065070574137      0.26722798599050
  C   6.25993443244710     -2.85218991727514     -1.04352920494126
  O   7.43178422391892     -2.72979371002958     -1.27155719716582
  C   3.49958592594722     -1.28755913580036     -0.05024893098034
  O   3.00396288963426     -2.39258172441319     -0.06031850231714
  H   7.40693677399425     -0.85511640797588     -0.16146361698112
  H   7.74912856802016      3.10261211680349     -0.14842905481071
  H   5.93845601003181      4.29751332597733      0.50097643234218
  H   4.92272692590075     -3.13792165252382      0.61406422753527
  H   6.42023473057066     -2.24913500475889      1.01632122025024
  H   5.56000235459585     -3.26016750099446     -1.79191636715165
