23
Coordinates from ORCA-job 20417optt
  Br  5.42684856956472      0.67318126085824      2.78462403825890
  C   5.56707046584283      1.00308500336347      0.94549478699427
  C   4.65627049655328      1.62975686925646      0.19397330005882
  Br  2.96575931938503      2.17799661506602      0.79306428808628
  C   5.03830467487171      1.86657279975895     -1.21535849683273
  C   5.77591383888141      0.89488085519761     -1.78710256056162
  O   6.29971470818417     -0.11293269016678     -1.02260766005629
  C   6.71291646779987      0.48399574754095      0.18579502046657
  C   8.00497093717457      0.76086689116354      0.34614897731570
  N   8.56442479725485      1.59112140260696      1.32727589428364
  C   8.45881113500211      2.85765044197360      1.20740460167626
  C   7.67157625752860      3.52373090297882      0.15926518227150
  C   7.35189157787103      4.81621635110140      0.04325175386123
  C   6.27573826852309      5.21652366083480     -0.95947783131606
  O   6.27823250614366      6.23237256329960     -1.58827220835852
  C   5.23894556702557      4.11054866043917     -0.89717750866168
  N   5.22900125291630      3.16457467248542     -1.74595104423302
  H   6.10873674113914      0.91749778712239     -2.81678879398696
  H   8.71377005726497      0.32807789964611     -0.35326771145982
  H   8.93805879823683      3.47131459425710      1.96822752886125
  H   7.24263032236258      2.83841064618242     -0.55489087262911
  H   7.76675612965097      5.59888423846553      0.67080493085887
  H   4.85265711082262      3.99567282656818      0.11856438510253
