20
Coordinates from ORCA-job 20414optt
  Br  1.10690122029720     -0.04224375271279      0.67251664309597
  C   2.96388935593318      0.01252760797658      0.37789969401058
  C   3.65168494011879     -1.13136038198795      0.00088696900761
  Br  2.87338716599909     -2.81023564094948     -0.25143249628112
  C   5.02013482819102     -0.96604211991846     -0.19151090830744
  C   5.65433160050268      0.24950865313524     -0.02872925821435
  N   6.99533717003830      0.02037418818694     -0.29141921704935
  N   7.17143169225947     -1.17062688183169     -0.57849119057211
  O   5.93862931310532     -1.86522694722746     -0.53618779669795
  C   4.96456693527143      1.40275592064313      0.34666502967185
  C   5.67182326735724      2.71749840166128      0.49468807883039
  O   5.72605841088295      3.41335822434880     -0.77049915578264
  C   4.64822283938621      4.11438733059181     -1.08695458033633
  O   3.65273993929307      4.23240639546877     -0.44070538287578
  C   4.82940372157516      4.77503028615241     -2.39048386180143
  N   4.92716635353781      5.30645013789985     -3.39862960383398
  C   3.60857896311999      1.25295092441510      0.55117932947905
  H   6.71422422082450      2.56918646160554      0.76207446213159
  H   5.17526447335545      3.35150253735451      1.22638757551744
  H   3.01322358895107      2.10779865518786      0.84074567000799
