21
Coordinates from ORCA-job 20413optt
  Br  1.25247013194255      0.27545805190512      0.50190141603577
  C   3.09459450470614      0.04642068013578      0.20115655410545
  C   3.61309439941566     -1.21062746218125     -0.08005664267063
  Br  2.60475218366186     -2.77635516306558     -0.22703617896060
  C   4.99023772593617     -1.26023139034202     -0.26971551013971
  C   5.79291860061648     -0.13926097173789     -0.20333732540463
  N   7.08280331669638     -0.57353414277554     -0.46050175192466
  N   7.08326548782884     -1.79617673948626     -0.65782646126190
  O   5.76858823709886     -2.30390559649922     -0.55073801893887
  C   5.26907805304083      1.12531012563833      0.06365142460291
  C   3.90695769171287      1.19157161689562      0.27448075962644
  C   6.13411715167125      2.32406974901278      0.14305043579497
  O   5.51833284822663      3.50830658045909     -0.34796976808439
  C   5.97839210510163      4.48000605994996      0.58204082273190
  S   6.31343762223897      3.15867898016269      1.78903374645692
  O   5.16144076691121      2.90216697822932      2.59999714055956
  O   7.62824426039059      3.15829565175794      2.34556951867339
  H   3.45016567328397      2.14494082118481      0.49811331648565
  H   7.13095820211339      2.16010230512147     -0.27350016437235
  H   5.20238853763205      5.19191456665748      0.85063571573793
  H   6.91076249977363      4.95784929897736      0.27705097094686
