23
Coordinates from ORCA-job 20411optt
  Br  1.34514620637699      0.63999616940121     -1.01973940808747
  C   3.11525007013299      0.18014042096677     -0.54295309036263
  C   3.47792652606145     -1.13879279589974     -0.39931601785341
  Br  2.36763052171251     -2.62840743672476     -0.63464638567768
  C   4.81742014010051     -1.31525815024939     -0.03683423238141
  C   5.70120466230697     -0.25600231295462      0.15289639670536
  N   6.91463725340302     -0.78447729547762      0.52727028363597
  N   6.81699882352035     -2.05345750508897      0.56645699836373
  N   5.56341013075316     -2.40432385177292      0.22933035645336
  C   5.20771621718757      1.06301580521970     -0.04008224951986
  N   3.93868382155766      1.21342146983055     -0.37336785384386
  N   5.95208210683414      2.21363533952480      0.10968133755776
  C   5.28178181917989      3.47815258193646     -0.07176673471764
  C   5.22688467504090      3.92201847522804     -1.51954754892900
  O   5.69964568369159      3.30175183818166     -2.42412560163709
  C   7.35274411554080      2.18619807443724      0.20935652821419
  N   8.14593041282525      3.16209788118193      0.11789632575132
  H   5.29772601378032     -3.37635365240985      0.20348765932957
  H   5.78249656142704      4.24728496076503      0.52096608981960
  H   4.25777731733798      3.40613725064170      0.29380407054713
  H   4.70753490866124      4.88510194323408     -1.68566670446241
  H   7.75023028246110      1.19628835512278      0.39786577612107
  H   7.69614173010653      4.04983243490593     -0.09296599502661
