20
Coordinates from ORCA-job 20428optt
  Br  1.08560580772648     -0.07470746255152      0.02674756831079
  C   2.94237291947841      0.10758594005695      0.02580936791593
  C   3.59575655604547      1.29417719923717      0.02614225666587
  Br  2.65890539196712      2.92041999154898      0.02787552288271
  C   5.03232860920023      1.33447520996497      0.02539476812591
  C   5.68152133453417      0.13396333001977      0.02486188082728
  O   5.06387108893199     -1.04472029769818      0.02460309385764
  C   3.67907798909402     -1.16100187806994      0.02473903211469
  O   3.21792406631946     -2.25553338219481      0.02413822162504
  C   7.10041310543774      0.11302928329577      0.02473108362228
  C   8.05843496713019     -0.84082050689625      0.02462084925019
  N   9.26612863049687     -0.17814572622268      0.02484782061821
  C   9.12661120158459      1.20321619635635      0.02511602822957
  O   9.98471993163658      2.04463059586043      0.02528246861312
  N   7.73923729053558      1.36096040717840      0.02499581982382
  N   7.12919729034411      2.56287795307391      0.02509515571006
  C   5.84787653546310      2.54154918264173      0.02530710864403
  H   7.96585612209769     -1.91130512936253      0.02448241436736
  H   10.17716931801100     -0.60406613038583      0.02482511003058
  H   5.36399184396514      3.50841522414730      0.02538442876493
