23
Coordinates from ORCA-job 20424optt
  Br  1.14416115887457     -0.42280509532811      0.27152574183489
  C   2.97232635436589     -0.05800627052137      0.13346502912286
  C   3.50448857123619      1.18347069985818      0.18271850025509
  Br  2.38716658210868      2.65412047448779      0.49476646842449
  C   4.94622284876464      1.37842224882306      0.06259076912297
  C   5.67963406860790      0.23922155600568      0.03401581107861
  O   5.18711148771610     -0.98909905009036      0.03190086862348
  C   3.81939772263583     -1.24002865539536     -0.01675094074813
  N   3.40866090822742     -2.41782337079357     -0.14569263951298
  O   7.01004456719994      0.15622976449916     -0.00232413754234
  C   7.72972256041972      1.31410178140034      0.04886050580073
  C   9.20297005280145      1.04606058853861      0.08162360586536
  C   9.60395254810439      0.28911409709920      1.26691812760813
  C   9.92299043681094     -0.32835657550225      2.24022328599507
  C   7.13571374292239      2.50274035995722      0.03737338044465
  C   5.67936550213321      2.65414127278337     -0.06643717673687
  N   5.09459148368054      3.76286565200531     -0.28560827479426
  H   4.18195209049176     -3.07538487433008     -0.21714428154063
  H   9.73078390227388      1.99910503056502      0.04817165089329
  H   9.47824553528481      0.48336977241278     -0.81508655234069
  H   10.20855724163514     -0.88108563373267      3.10338683389810
  H   7.74388951334760      3.39671726305855      0.06593929668029
  H   5.77405112035689      4.51890896419948     -0.34943587243209
