20
Coordinates from ORCA-job 20422optt
  Br  1.14910337317650      0.13782348538202     -0.05741265213607
  C   3.00734303453182      0.20152216953494     -0.04328626173236
  C   3.70379697158131      1.35406441250862     -0.03842083830654
  Br  2.92463826681609      3.05369579595011     -0.04133865952057
  C   5.14416815669847      1.27373659600690     -0.03196962110015
  C   5.75977800652809      0.08391938329053     -0.02988704662126
  O   5.07669262028217     -1.06857561378742     -0.03189353617230
  C   3.69759613337276     -1.10652238939807     -0.03768164983923
  N   3.08486109498384     -2.19995823669868     -0.03777384770964
  C   7.23637942356603     -0.00261879519083     -0.02662300588537
  O   7.82030641945473     -1.04967456239660     -0.02533072379262
  N   7.87900933407253      1.23776429746964     -0.02587654035054
  C   7.19955733547283      2.31482199886964     -0.02762069551300
  N   7.81921805391185      3.53348894189069     -0.02733200925431
  C   7.22195080549149      4.78703101928565     -0.02964220305593
  O   7.87044365637796      5.79263351764520     -0.02968244485556
  O   5.85895784834563      2.43350024073139     -0.03017779001522
  H   3.73295892733221     -2.98541662059778     -0.03294110157301
  H   8.83096137118038      3.50269636473763     -0.02590722394753
  H   6.12627916682325      4.75606799476640     -0.03120214861883
