30
Coordinates from ORCA-job 20427optt
  Br  1.12456379130468     -0.25650197132872     -1.04854221384811
  C   2.92153028546805     -0.00546096536333     -0.60242814784486
  C   3.49949686219340      1.19000216283560     -0.34563475787960
  Br  2.47845506341421      2.77151581841724     -0.46485190252124
  C   4.90351123914306      1.31605201468572     -0.01837164000991
  C   5.63237056772605      0.18385696832705     -0.10206202213514
  O   5.06210893798633     -1.01386228704925     -0.36242844272840
  C   3.72047739781050     -1.22713376961002     -0.55025995743991
  O   3.33084618421738     -2.34776788718172     -0.67982749903074
  C   7.13857726239549     -0.00642899608610     -0.00010719785945
  C   7.55613754373338     -0.52383544222879      1.38561334241672
  C   7.76176444711813      0.54243081715178      2.46218864773541
  C   6.73823062863634      1.67644359404912      2.45018574823186
  C   6.79110081494458      2.60215581568506      1.20292170248785
  C   7.98049107559530      2.34663680371360      0.27946004307110
  N   7.94214965562904      1.09713259496143     -0.47900114013960
  C   5.46728913005037      2.64104799607129      0.43304226793121
  H   7.31944337781037     -0.83283548979299     -0.69234523846015
  H   8.48111498901760     -1.08846790624686      1.26316362239380
  H   6.79260079059896     -1.23670636531966      1.70631541481405
  H   8.76560998234328      0.95964428175346      2.37213760565173
  H   7.73134700611690      0.05198058062120      3.43717052224750
  H   6.89919062217715      2.28356367291890      3.34215958833403
  H   5.73464314984870      1.25370335788466      2.55087341563933
  H   6.93528861854100      3.62251329347881      1.56856126363440
  H   8.90358364957175      2.39675376060797      0.86181990728242
  H   8.03491173862843      3.16542432857164     -0.44057437738425
  H   7.73418172592760      1.27228302913884     -1.45131008448635
  H   5.55922394655883      3.31825992058331     -0.42232880122972
  H   4.71875951549304      3.09460026875074      1.08646033112597
