28
Coordinates from ORCA-job 20429optt
  Br  1.00107130537848     -0.19776867802744     -0.45696911299499
  C   2.85473933433333     -0.00316907929714     -0.34649388856979
  C   3.50103537660945      1.16895767948698     -0.16048264098066
  Br  2.55534938363459      2.78071457889513      0.06047588337760
  C   4.94814483081802      1.24959389481055     -0.13055445048875
  C   5.62788585992473      0.09045819423292     -0.28569994028288
  O   4.98110809191004     -1.08940234747181     -0.40828811007490
  C   3.61850384170750     -1.24550611363552     -0.46154089758114
  O   3.17502789071858     -2.34612524852871     -0.58886065741036
  C   7.11288906351449     -0.13960029600004     -0.25322264472119
  C   8.01804326883414      1.02957965054317     -0.65399364869507
  O   8.37247784385948      1.71311244091823      0.54447214155270
  C   7.85435359068807      1.03195559128001      1.68071791742317
  C   7.60071079732735     -0.39132401557862      1.18468808055404
  C   6.59459577832387      1.71886296635839      2.26421343428510
  C   6.00704312198618      2.84853435776156      1.43173130725834
  N   5.64568097659965      2.45168221201929      0.06509098848370
  H   7.29617446896046     -1.00821053605356     -0.88510751379359
  H   7.54356312255370      1.72501453570434     -1.34165687715459
  H   8.92986846877207      0.63189890728579     -1.10809056032405
  H   8.64142777093033      1.04030356052724      2.43544747268793
  H   6.89097157068247     -0.94895101342941      1.79374058689731
  H   8.54004312195397     -0.94470800571159      1.14854064787029
  H   6.83609836156323      2.14910618085028      3.23758252548358
  H   5.82448753383076      0.96716266712603      2.45413433883184
  H   6.74405628929275      3.64540763755814      1.33245928825991
  H   5.14168346085603      3.24919576385792      1.97514102985082
  H   5.20696547443620      3.22022451451786     -0.42247469974436
