25
Coordinates from ORCA-job 20432optt
  Br  1.41899028581001     -0.54298096853499      0.33763650956831
  C   3.22960755631553     -0.12752546266968      0.15008599426269
  C   3.77050320734247      1.08742890906788      0.40357856457543
  Br  2.69816157561088      2.51291242893529      1.00040110533539
  C   5.18402733172143      1.33682079302675      0.24882593370797
  C   5.91961687981004      0.28738691927044     -0.18556801732608
  O   5.39833742178395     -0.90815477036094     -0.48416235454449
  C   4.06736842726969     -1.22945349520800     -0.31985675873596
  O   3.71280062566561     -2.33667299606331     -0.57972810789214
  O   7.24408545438098      0.29347586238397     -0.34974042949435
  C   7.79192771890332      1.20842620582353     -1.31353336774605
  C   7.88839902714920      2.61281167251753     -0.77335644020126
  C   6.52794854483541      3.23784860326405     -0.50345967667030
  N   5.79788285134178      2.55664370299402      0.56053160065515
  O   9.07424897532646      0.75517897881281     -1.59081997193079
  C   9.16460941234154     -0.39981781669209     -2.31871705888313
  N   10.24563927771373     -0.93748052804300     -2.63352217416957
  H   7.15608856345942      1.16064667715317     -2.20801063278816
  H   8.42156714136761      3.21017891477118     -1.51527551183073
  H   8.48159591719770      2.58415588201972      0.14195420030666
  H   5.94238942868545      3.26472291365864     -1.43324509695635
  H   6.68022938955372      4.26731877514919     -0.18214604750965
  H   5.16826181328395      3.17659778846191      1.04599892326383
  H   8.20490607162121     -0.82034160077229     -2.61698012675637
  H   11.04180710150883     -0.41912738896580     -2.26089105824003
