20
Coordinates from ORCA-job 20441optt
  Br  1.09152393578209      0.04443066577461      0.06767761880439
  C   2.94820354567848     -0.13343048135727      0.06794196014811
  C   3.61781509889178     -1.29978901547927      0.06807962261257
  Br  2.75337502752907     -2.95836526743666      0.06800670883597
  C   5.06553888029930     -1.25575947532528      0.06814199069696
  C   5.66499069838983     -0.03114871079866      0.06815184240574
  O   7.02503017328177      0.13030097619590      0.06808286473545
  C   7.75108213906475     -0.98771214409749      0.06803478521675
  C   9.07531559663085     -1.17957048450831      0.06798246016762
  C   9.29379559172000     -2.63638376154305      0.06795403481700
  N   10.33167745006289     -3.35559280707135      0.06790604944533
  N   8.01034492183211     -3.22453207567314      0.06799236166936
  C   7.04921225354784     -2.28488778356917      0.06805106491476
  N   5.77454344407303     -2.44550005594751      0.06810120027540
  C   4.93593766348035      1.21674678340013      0.06829061720268
  O   5.39001161179493      2.31738890340493      0.06778271123787
  O   3.55845927750880      1.05732634333921      0.06798772199013
  H   9.86385459064052     -0.44631657916569      0.06796209922687
  H   11.17364314446307     -2.78622925741684      0.06788521077678
  H   7.85964495532849     -4.22097577272508      0.06798707482024
