23
Coordinates from ORCA-job 20440optt
  Br  1.00373586755234      0.11016310557631     -0.36807837246245
  C   2.88522257291212      0.11455549730104     -0.23009238273461
  C   3.59437078912139      1.31452748456235     -0.18255501658537
  Br  2.79432369740633      3.00614136666902     -0.22678163163674
  C   4.97283284739756      1.20772623654860     -0.10066591251316
  C   5.60393920532957     -0.03611319699658     -0.06501791924355
  O   6.96884799758071      0.10828458133308      0.00741823462590
  C   7.18715883407221      1.44357897204204      0.02053977384720
  C   8.20563770096462      2.35402672896351      0.07436762503506
  C   7.49951541446342      3.58505705971198      0.03772190047571
  N   6.18232725135176      3.45340141878023     -0.03177290900429
  N   6.01426824160275      2.12087197907477     -0.04069586139346
  C   4.91470885378567     -1.22863463551654     -0.09931720564594
  C   5.62890897404898     -2.55598287872561     -0.03088746996957
  C   6.21581850388393     -2.79602931379628      1.28806954079529
  C   6.68806964554204     -2.97642724290385      2.37275831539351
  C   3.53183882036987     -1.11927236432569     -0.18540814979018
  H   9.26458517314205      2.18612399179485      0.13174324797244
  H   7.92384502716068      4.57602943209313      0.06184656533927
  H   6.42194043406973     -2.58623687425281     -0.78207263076631
  H   4.92621455427551     -3.35579844368304     -0.26788722774732
  H   7.10957644584768     -3.13648402134107      3.33634131772978
  H   2.93131314811900     -2.01850888290944     -0.21457383172121
