24
Coordinates from ORCA-job 20447optt
  Br  1.42322403460643      0.43383835974026     -1.35495315599853
  C   3.04451201547797      0.03911607086726     -0.48589614033131
  C   4.07109504947641      0.98027891238027     -0.33968193328833
  Br  3.95324071295210      2.74107590843910     -0.98964775706022
  C   5.21412070682946      0.58325634643957      0.30869534739032
  C   5.27525519993673     -0.72954644049845      0.76986060819254
  O   6.44821767554908     -1.00838120866336      1.38636626576636
  C   7.28269711148761      0.13868768702365      1.34064289410023
  C   7.55914224872514      0.66329643636698      2.75254864916241
  O   6.50896712030213      1.57701444676612      2.98095943185768
  C   6.35984951320894      2.32133689591290      1.78955103199799
  C   6.48266139231621      1.28426485153158      0.66044819729291
  O   8.42135496604054     -0.16732046910692      0.56035732064373
  C   9.34020333360738     -0.99936341557265      1.08866901499780
  O   9.31578058516056     -1.45015960978013      2.18860964311455
  N   4.34186186931147     -1.63529916652170      0.65552609131281
  C   3.23307836264420     -1.23647695988321      0.02766602544605
  H   8.53364568289955      1.16659294492845      2.77223191695678
  H   7.52594113295858     -0.12073116508062      3.50042175672634
  H   7.15699750003715      3.06862918752200      1.70167707737184
  H   5.39539172288902      2.82378457298817      1.80979637472180
  H   7.00438604246730      1.67261419213823     -0.21310103688460
  H   10.12176482686925     -1.18354497834842      0.34344202419756
  H   2.44461119424672     -1.97096339958910     -0.08018964768670
