26
Coordinates from ORCA-job 20455optt
  Br  1.15537099654583     -0.36542889186153      0.25687262848290
  C   3.02063248842657     -0.22886848521225      0.07724805349633
  C   3.85085146382863     -1.22290899888590      0.47082653811911
  Br  3.16353119465609     -2.81243094029602      1.21196198751140
  C   5.29238569129564     -1.18791936529201      0.37249937140130
  C   5.95583838444708     -0.12407598330946     -0.11562801196249
  O   7.29842195300603     -0.05880756696805     -0.22756995368089
  C   8.00055799710454     -1.09398880721387      0.45071357868169
  C   7.28768144416372     -2.41759019695064      0.26720280375891
  C   7.91130662271649     -3.62754512694446      0.93581954008039
  C   7.25357580035550     -4.76376497267183      0.14558922122004
  C   7.00755264564663     -4.13195602539160     -1.23564042042491
  O   7.24363790012825     -2.72440797102993     -1.08771017381413
  O   5.97186167766767     -2.30032938611946      0.79715523217908
  S   5.20852813086168      1.31945401288913     -0.70985942828025
  C   3.46731551277786      1.03426734516405     -0.52400080047124
  N   2.64600519729182      1.92250318497739     -0.90391811338592
  H   8.05848385417080     -0.86004050885974      1.51681784676191
  H   8.99500142022338     -1.12701530747040      0.01395893356405
  H   7.70420592726242     -3.65888474022972      2.00278280947165
  H   8.99013179648096     -3.60051078081070      0.77505175545086
  H   6.30873584640578     -5.03724893010881      0.61172482676385
  H   7.87955004395620     -5.65122295359263      0.08825545264372
  H   5.98578644070227     -4.29009161739670     -1.58104795199351
  H   7.69867245594072     -4.49290819766244     -1.99616880760047
  H   3.10037711393731      2.74272121124761     -1.29993691797339
