22
Coordinates from ORCA-job 20459optt
  Br  1.11754975581746     -0.32403175847951     -0.12332742905256
  C   2.95588098256019     -0.00942938885965     -0.09008824320247
  C   3.55181362114162      1.18589061470396     -0.21607773080377
  Br  2.56470442391914      2.76737523302902     -0.46084569951340
  C   4.99423365091748      1.25349858327494     -0.18639197124853
  C   5.70374609139383      0.10793303574087     -0.07961592011242
  O   7.03973979699196      0.01129715821379     -0.09000603575743
  C   7.72860620520936      1.16538751173142     -0.55763963627455
  C   7.18612307020854      2.41649181605543      0.10416145726999
  C   5.69847709097607      2.57840110344164     -0.25639826349605
  C   5.60093444242598      3.17418160526208     -1.64976405852094
  O   5.55217078018966      2.54624899241090     -2.66467746228835
  C   5.66515616007779      4.65603217140306     -1.67583610176836
  N   5.73222623176947      5.79912196414455     -1.63693260668874
  C   5.04156889176689     -1.18963717839212      0.09876048200522
  O   5.57819637550918     -2.23596063012705      0.26210401991012
  O   3.66013889142321     -1.13717972063892      0.07707856940537
  H   7.61403112052890      1.21880519434056     -1.64474793300123
  H   8.77484031898839      0.99976412199958     -0.31481164233186
  H   7.75965037791372      3.29187881528935     -0.20600823784488
  H   7.27783111614169      2.32657097273417      1.18708789193952
  H   5.23138060412936      3.27835978272190      0.43897655137533
