26
Coordinates from ORCA-job 20454optt
  Br  1.14393878123925     -0.22013025254492      0.27607978460226
  C   3.01346832768657     -0.02652280875588      0.12655896701928
  C   3.62675490193403      1.21725630798523      0.12479546209340
  Br  2.66929358490101      2.81929923709733      0.29340155308920
  C   5.01621390143523      1.25313502698885      0.00407545487471
  C   5.74724373689328      0.07878888404008     -0.08603927042796
  O   7.08582314206841      0.25959908047115     -0.18567841285247
  C   7.34818439363214      1.66307391854821     -0.17796426720153
  C   5.99223035918305      2.36024499257509     -0.05898147520607
  O   5.82741037293720      3.54716938073761     -0.03357785322376
  C   5.15997687930081     -1.18365778817564     -0.07119893006781
  C   6.00702736758079     -2.43462296797909     -0.07987598505306
  N   6.83184329275599     -2.60607219541143      1.10791090577795
  C   6.06110559628505     -2.65021767811021      2.34479065231526
  C   6.93936839530391     -2.67842424019357      3.51121656929497
  C   7.66312592458407     -2.67361737915529      4.46443913386244
  C   3.78104100687646     -1.19463848998094      0.02970853602000
  H   7.84976840709054      1.94569793057741     -1.10334200533341
  H   7.98222840814435      1.91111738230993      0.67347691904690
  H   6.67182668046515     -2.42411013475438     -0.94479417418944
  H   5.35534284089423     -3.30605103714278     -0.17721510124537
  H   7.53200292922837     -1.87501534489225      1.15850043374511
  H   5.44725443062323     -3.55618691356972      2.33342797874333
  H   5.37073235206763     -1.80186439793116      2.45578497032666
  H   8.29945363018709     -2.67777149801815      5.31683215744697
  H   3.26334035670204     -2.14647901471546      0.04566799654243
