20
Coordinates from ORCA-job 20450optt
  Br  1.08076835390709     -0.02432320102019     -0.00858972367885
  C   2.96162615884614     -0.10683864512071     -0.02179942085296
  C   3.64821889041945     -1.30994524981852     -0.02520600087950
  Br  2.76132518514424     -2.95997693183643     -0.01968066497850
  C   5.05851081703594     -1.30034130599656     -0.03247974294602
  C   5.72492778251464     -0.07037437686897     -0.03572850575664
  O   7.08219487521291     -0.01348274560844     -0.04098815079724
  C   7.80236449551912     -1.15322364218858     -0.04165572415397
  N   9.06464755538778     -1.06942359193628     -0.04353730066844
  C   9.81175024225224     -2.26938094218060     -0.04394456588273
  O   11.00487483791548     -2.23469480333201     -0.04199914498123
  N   9.15947524848942     -3.55340578195250     -0.04687232853716
  C   7.89168862008000     -3.60087785272832     -0.04490912171667
  C   7.04923362366475     -2.40488041567450     -0.04058868759981
  N   5.77037718011641     -2.48435078459196     -0.03628260671038
  C   5.03813098554261      1.13177620395329     -0.03383084582138
  C   3.66052514855811      1.10273283281444     -0.02694058987191
  H   7.38134189941039     -4.56223150160302     -0.04663700254779
  H   5.59091387083270      2.06063292501574     -0.03724845272035
  H   3.09910422915052      2.02660981067415     -0.02508141889845
