31
Coordinates from ORCA-job 20460optt
  Br  1.00885937488513      0.16711803344193     -0.15730966176417
  C   2.88845559362819     -0.01967967957947     -0.12813106176803
  C   3.74953574861796      1.07169660946617     -0.15845253791391
  Br  3.05579447854150      2.83478667343249     -0.16379748412448
  C   5.13505452443628      0.89282289661141     -0.16228298844487
  C   5.62900621335608     -0.40937695712471     -0.06181208093606
  O   6.96158328623422     -0.68338856393836     -0.07213983217131
  C   7.86733538832943     -0.10519148327206      0.87800902967786
  C   7.30221868403463      0.27282394545861      2.23911285213967
  C   6.34408503641112      1.47561758770784      2.32781411868625
  C   6.47916183202709      2.53125539950774      1.23100266990648
  C   6.11338815972246      2.03178318136350     -0.19064412184748
  C   4.77571235212539     -1.51245642797987     -0.02892178832266
  C   5.35668018304363     -2.90562922792062      0.04179480530020
  C   6.03589583684580     -3.17809165798179      1.30904445339951
  C   6.58351403505373     -3.41217108427892      2.34819476706752
  C   3.40930914710319     -1.30488037997938     -0.07399037535046
  H   8.36327637823974      0.75375975817577      0.42117247394148
  H   8.61958260012762     -0.88112460144725      1.02096999927055
  H   8.18928433580139      0.48748407024427      2.84220252430147
  H   6.83498723923326     -0.60988719621821      2.68023639329136
  H   6.49870773245040      1.96227804563404      3.29276650927346
  H   5.31193885784169      1.12221174039820      2.34007762276349
  H   7.49240885800879      2.94041600447159      1.21357589720622
  H   5.81328191771097      3.35806806507548      1.48488751431925
  H   6.99823965504711      1.69420935777016     -0.72578924090734
  H   5.69881172259578      2.85781660470768     -0.76437397060076
  H   6.07676203946485     -3.04142857478996     -0.76833976777504
  H   4.56107652027726     -3.63869676732269     -0.09896034626532
  H   7.06803697093183     -3.62389908362121      3.27116816551795
  H   2.73301529787336     -2.14924628801238     -0.05108453787085
