27
Coordinates from ORCA-job 20468optt
  Br  1.02570409869292      0.24132954517679     -0.34598820162662
  C   2.89077923931462      0.14306397547964     -0.19043384468882
  C   3.71363500488820      1.25871564197920     -0.10822043067613
  Br  2.96759340532289      2.98667654919613     -0.08678776865818
  C   5.09927805455377      1.11227206001229     -0.03283174709706
  C   5.58261530565513     -0.19236880068980     -0.02268376118198
  O   6.92105828594129     -0.40508093814112      0.01834817962426
  C   7.48289983601534     -0.55843885022739      1.32726448712149
  C   7.76997153989442      0.75858900568623      2.03205791830159
  C   6.54879459648427      1.60920161454518      2.40113373515495
  O   6.23064531521286      2.63606209470614      1.48291349222051
  C   6.07266886321604      2.24635793752816      0.13267113098055
  N   4.81470648246616     -1.26993204394445     -0.05546849730314
  C   3.51452999814238     -1.11002448132175     -0.14518825755197
  O   2.71177011693484     -2.19903122103665     -0.16538829436121
  C   3.25276614892973     -3.45400066283110     -0.34168834397115
  N   2.58357105860674     -4.49323009098712     -0.17019822761051
  H   8.40901551096995     -1.10936556445895      1.17266731148026
  H   6.81103935818460     -1.18113654952813      1.92654197663705
  H   8.46637860808792      1.36028607838131      1.44303065201042
  H   8.29233333719811      0.49734392799687      2.95628894929052
  H   6.73716668167139      2.13851237084421      3.33361518454826
  H   5.67869690550493      0.95932707957055      2.56386191339477
  H   7.03052413204843      1.93909986979868     -0.29167809080440
  H   5.72634416029026      3.13383031525877     -0.39118034810795
  H   4.29049010331873     -3.45615682837385     -0.65211429702522
  H   1.63302385245401     -4.28090203461982      0.13445517989969
