27
Coordinates from ORCA-job 20463optt
  Br  1.23978410294464     -0.44381734399852      0.12908400773382
  C   3.07638919476019     -0.07968985822119      0.01810759829432
  C   3.64851188974346      1.11822774315050      0.29194337314642
  Br  2.58490980182272      2.57281627448979      0.84822336801223
  C   5.07396626618183      1.25274362828120      0.14695119794910
  C   5.80861231829036      0.18645189016439     -0.27079241224926
  O   7.15389173426823      0.25171458105758     -0.41313830243352
  C   7.63742009506178      1.06485968788053     -1.47733788438754
  C   7.75984349493691      2.52837547145301     -1.06522292476652
  C   8.38877305552455      3.33976795620250     -2.19749345641488
  C   9.80636798809683      2.91687294724483     -2.47394948659026
  O   10.22191274485606      2.58971165238076     -3.54917864071635
  N   6.50893987611048      3.15541037237037     -0.66997996175524
  C   5.81172609484452      2.54447880182584      0.45159154254770
  C   5.22065582701354     -1.11820736661756     -0.56037585036510
  O   5.80929815152890     -2.11016663403622     -0.92532115585693
  N   3.83867787484334     -1.13340064986834     -0.37877029716111
  H   6.97764207608290      0.96913415709045     -2.34677542835225
  H   8.61293124268181      0.65419865897076     -1.74310610653451
  H   8.41881833827365      2.56669211705271     -0.18983622520844
  H   8.40243169684157      4.38850787281708     -1.88668316637409
  H   7.80892862356801      3.25670802775385     -3.11926265663606
  H   10.47758830403406      2.92185112476516     -1.59047219224766
  H   5.89008818996595      3.26660375616672     -1.46635450974468
  H   5.12039713497143      3.27315344896392      0.86500213235049
  H   6.55703494836792      2.32690111571169      1.22078783820907
  H   3.39245893438430     -2.01689943305181     -0.58664040044875
