22
Coordinates from ORCA-job 20471optt
  Br  1.30091803387175     -0.09251492910765     -0.22852325027471
  C   3.12985626161941      0.22973845593728     -0.03810442708465
  C   3.69795011641964      1.45054796914432     -0.07492552836883
  Br  2.66327219551152      2.98619283275775     -0.35337592845886
  C   5.13862973822543      1.52056563412555      0.07295535072966
  C   5.92188098154206      2.62045982443677      0.27059185107596
  O   5.38871774888430      3.87420048522415      0.43275333778850
  C   5.50406655289431      4.69275095116985     -0.71595260360330
  C   4.72332816882513      5.91213752462217     -0.49155779233924
  N   4.11358178927749      6.86873763960951     -0.34252632705799
  C   7.33423377749270      2.47231949919793      0.38817871530013
  C   7.94032126344546      1.28624627326420      0.20518200085053
  C   7.18794982575198      0.09920141959021     -0.14876186195703
  N   7.61650331844582     -1.02387906073916     -0.54307827870868
  N   5.76448002727108      0.26590644398768     -0.00212935272767
  N   5.10708749619086     -0.90552929323453      0.13806755151549
  N   3.86227680824487     -0.93167903582226      0.16085920663500
  H   5.10330307696893      4.18301962617182     -1.59692123585331
  H   6.54694781238966      4.96152142887343     -0.90825873721273
  H   7.90733974453961      3.35586775388581      0.64344533086355
  H   9.01228466457191      1.17755023935830      0.29361541247888
  H   8.63307059761602     -1.02836168245315     -0.54853343359071
