23
Coordinates from ORCA-job 20476optt
  Br  1.03255446551736      0.17558738424798      0.25580098425616
  C   2.90663459103363     -0.00329758492469      0.14695534130796
  C   3.51095511422788     -1.24148996610709      0.03195150031203
  Br  2.55779264461308     -2.85535260235764     -0.07761696829080
  C   4.90901196889655     -1.28996833753361     -0.01807856559519
  C   5.63561438363402     -0.09908720790018      0.03773985157633
  O   6.95983455690601     -0.35424638557740     -0.03187172587883
  C   7.08389130740535     -1.71337396735992     -0.13548025303026
  C   8.45103307871396     -2.24048588047855     -0.21735157676821
  O   8.69016329841638     -3.41054413000119     -0.34527938357980
  C   5.88089582866014     -2.33375410750664     -0.13455434369974
  C   5.05134483528580      1.15955360415666      0.12549092056322
  C   5.88041275546139      2.40928884545391      0.15406341054244
  O   6.34980182640941      2.69450001750398      1.48269768151362
  C   5.50030609152658      3.36160118945942      2.26627752023464
  O   4.41170935687290      3.73682960496805      1.94766766021674
  C   3.67082838755680      1.17572457077900      0.18792538081670
  H   9.24719294962359     -1.47899028160562     -0.14834831332778
  H   5.71874230874314     -3.39611491932057     -0.20366075569281
  H   5.30552873339200      3.25740399684269     -0.21289839218477
  H   6.78309587970388      2.28605384877798     -0.43878549774388
  H   5.95412418026384      3.52087961651434      3.25085376724250
  H   3.16053145713621      2.12528269196908      0.28050175720972
