22
Coordinates from ORCA-job 20477optt
  Br  1.01007582766949     -0.16446711422295     -0.38373004691749
  C   2.86964387012004      0.04381769471727     -0.18926595473607
  C   3.51983085662818      1.25294560068089     -0.14585868121630
  Br  2.52864302864679      2.83947501281188     -0.36216292062303
  C   4.94026694452120      1.31267665777855     -0.01015569073752
  C   5.68612802220415      0.13078705276658     -0.00555077978812
  O   7.03369430482149      0.10137342130737      0.08937926840038
  C   7.73531287363992      1.19786090836187     -0.46833899669476
  C   7.17608588647182      2.53649368944472     -0.04573205748918
  O   7.83422981320915      3.53301562389822     -0.03887985913317
  C   5.66957559948262      2.56052194916099      0.29760524644276
  O   5.20362332608513      3.54093354950103      0.80681950492982
  C   5.04026632830138     -1.10835318412459     -0.02915876497363
  C   3.64089091139346     -1.12469254336062     -0.10283668040231
  N   3.24957021473662     -2.42496487711475     -0.11246185491660
  C   4.36119085180509     -3.23577677797117     -0.04453499876581
  C   5.48315604346814     -2.46688163414971      0.00619268626795
  H   7.68296973161666      1.14696299173464     -1.56289459172354
  H   8.77359755092090      1.11452535951965     -0.15795973575841
  H   2.29132948485517     -2.72784878978513     -0.17232422074590
  H   4.25349136125286     -4.30718471603413     -0.03640423003694
  H   6.49942716814969     -2.81421987492061      0.06825335861787
