22
Coordinates from ORCA-job 20470optt
  Br  1.21451118024875     -0.22887842373691      0.16619461319754
  C   3.05106736186726      0.06647877940397      0.02334468156792
  C   3.64939681577793      1.26755562220982      0.11530651949759
  Br  2.69691227509065      2.85832028054367      0.39446021120536
  C   5.08442997465968      1.30973188991613     -0.00680740794319
  C   5.77798939893850      0.16804646406850     -0.23494186008162
  O   7.12620601259417      0.13464544289226     -0.31258347725158
  C   7.78956636158243      1.33960848968877     -0.66870035344840
  C   9.19222678920110      1.24737442068188     -0.10788749750884
  C   9.18955636739896      1.27290729395722      1.40124722335686
  O   8.21003583636921      1.49231102101317      2.05626511622793
  C   7.10515591370933      2.61531948262285     -0.18336860713665
  O   7.68817435063916      3.66696327810653     -0.14704363813908
  N   5.76989856829357      2.50052653246152      0.10431349614107
  C   5.12085270935275     -1.11308645651652     -0.34650639871420
  O   5.62360226938863     -2.17358435717970     -0.54055468990666
  O   3.73184340351802     -1.05646742667075     -0.19010453958979
  H   7.82596308946493      1.41578153569535     -1.76235650389422
  H   9.79714669110561      2.08623569235235     -0.46045270719871
  H   9.66982077358273      0.32768231306298     -0.45269785217113
  H   10.16515716094352      1.08794458011066      1.88540898502298
  H   5.27748669627303      3.34858354531625      0.35046468676680
