23
Coordinates from ORCA-job 20472optt
  Br  9.47251069387056      0.96540326675904     -7.06568260292666
  C   8.06291263081916      0.00295675000449     -6.28064947533876
  C   7.13306025898943      0.54202715487457     -5.46317309173490
  Br  7.04592405524889      2.40256265519568     -5.19179310933077
  C   6.20317636972286     -0.29343505068901     -4.70431374907678
  C   5.98081872945432     -1.59280204703818     -5.04047970417125
  O   5.36710422278616     -2.53697076120502     -4.28572323768932
  C   3.98855350285671     -2.86975817329988     -4.57272363086528
  C   3.05690169925791     -2.04889948509292     -3.65900246744756
  N   3.59485748421709     -0.72890350736366     -3.83558623389811
  C   4.52500495723278     -0.41952728168739     -3.04703090154973
  N   5.61034263981177      0.27365057068166     -3.57235126570477
  S   6.58916671845649     -2.15445629122684     -6.58843499552428
  O   6.92208700247508     -3.54018791621382     -6.53183816291648
  O   5.77327754981220     -1.65270864743765     -7.64274880692823
  N   8.03022332753733     -1.32677021755032     -6.60494944196415
  H   3.90263151277350     -3.93992194017879     -4.39774886008261
  H   3.77016522016737     -2.64362200291489     -5.61689592226200
  H   3.11778862115163     -2.41908946147579     -2.62669448676030
  H   2.03167906364678     -2.12685666847414     -4.01879783000332
  H   4.62310039883544     -0.78664109876512     -2.01746847556462
  H   6.20935767120613      0.81454064852560     -2.96703775717915
  H   8.87435566967025     -1.84959049542758     -6.79587579108085
