20
Coordinates from ORCA-job 20481optt
  Br  1.02950356190409      0.11989953924408     -0.66337107312155
  C   2.82076074504609      0.15783683040465     -0.11577749897972
  C   3.49241380056523      1.31841779409130      0.00623948739242
  Br  2.71290540566450      3.00608334452774     -0.16876414015248
  C   4.92797172147256      1.25189766454643      0.14879381019501
  C   5.56565994691118      0.07010406657940      0.00527606583889
  O   6.89411116036926      0.28415280913703      0.08644778518745
  C   6.98951402328669      1.62616627091378      0.27823737347398
  N   5.86814517688551      2.24981751896400      0.32352026432460
  C   4.90542297906001     -1.18752056125328     -0.16560639676330
  C   5.49856995689614     -2.36874920183130     -0.32106142808487
  O   4.79198236332972     -3.53143980921352     -0.37026046241501
  C   3.51290163632359     -3.56121877133985      0.10816171813021
  N   2.87980338466601     -4.62689885654197      0.26563393788714
  C   2.81564893791685     -2.24177524133285      0.42197640528579
  O   1.75404172570637     -2.21981042218243      0.96239354522264
  N   3.48994404700100     -1.09154224263557     -0.02045608279577
  H   7.98404533318907      2.02898172785559      0.37213112905931
  H   6.56661764450550     -2.49610635918607     -0.38306178591273
  H   3.44903644930060     -5.43229610074716      0.00554734622799
