22
Coordinates from ORCA-job 20483optt
  Br  1.12189140182881     -0.12629266580874     -0.40184634679316
  C   2.97441677052273      0.04432770692296     -0.12486989511954
  C   3.56705274992194      1.25059350876837     -0.07781890705859
  Br  2.64639479061898      2.87022755131330     -0.27800624020481
  C   4.99438870823253      1.32011807471791      0.07705767134458
  C   5.86912651167360      2.32780404686942      0.16037385676167
  O   7.16294445446444      1.87061613365021      0.19385597185948
  C   7.16785385002061      0.48212098197600      0.14498280871083
  N   8.20453477649990     -0.20472054609558      0.30432014218710
  C   5.74791237414714      0.07968151231181      0.00786595227299
  C   5.11553833359919     -1.10268669936710     -0.10587590743400
  N   3.70854127381745     -1.14890986501892     -0.04035256144512
  C   3.09797796178054     -2.35808965621189      0.32731199368952
  C   3.78337031814171     -3.49724138321674      0.32430595000073
  N   5.10984381027300     -3.52376909279730     -0.07165561698890
  C   5.82203401259378     -2.39745107274278     -0.39703494144235
  O   6.91095142338395     -2.44424448940466     -0.90197376179567
  H   5.73470448487735      3.39534860534514      0.17638302998937
  H   9.01177882867600      0.39995645361545      0.45016767227266
  H   2.06900144245590     -2.31610110990800      0.63198623826784
  H   3.33710667723362     -4.42947584863302      0.62894351571846
  H   5.57763504523681     -4.39781214628584     -0.25712062479307
