21
Coordinates from ORCA-job 20497optt
  Br  4.11266526239761     -1.66348215266043      1.67685251765952
  C   5.08102245863457     -0.06540517148778      1.50117758272404
  C   4.66755801746308      1.00565449358747      0.81790260636197
  Br  3.04901912956390      1.09287087477392     -0.13127828245223
  C   5.53422929765418      2.18856628810612      0.88089760359302
  C   5.20234848783240      3.34276151391250      1.45622997193370
  O   6.20735263407366      4.21168631839861      1.81581904881211
  C   7.07663582611025      3.72656910418631      2.76490024350466
  N   6.65919704798765      3.11433672155570      3.77625490746592
  N   8.36868159169905      4.16549975245094      2.48360779330551
  C   9.37014166260816      3.44250847325180      2.22703817028286
  C   9.62536894040116      1.95403115356449      2.11495820005327
  N   8.92314645285023      0.94295355383403      1.80406822124783
  C   7.56740568597563      1.08152027494823      1.51952164231436
  S   6.59323503228292     -0.09518035286015      2.40522146810302
  C   6.96914411019842      1.93000577089789      0.67969694122113
  Br  7.88523016885154      2.90718811819604     -0.64795420136013
  H   4.19416143303778      3.66314480911849      1.68126967044736
  H   7.41925458560791      2.82713568497870      4.38635718660696
  H   10.30868903628864      3.98318953227557      2.08935687058594
  H   10.67551313848120      1.73944523897152      2.31710183758916
