22
Coordinates from ORCA-job 20498optt
  Br  2.54927434817453     -0.89934258628736     -1.58751726928270
  C   3.81684264832141      0.08076710249764     -0.60453222883379
  C   4.24802579555495      1.28964593409458     -1.00529765433339
  Br  3.54824500100818      2.12824925834532     -2.54167852148983
  C   5.28403566821999      2.04501304018830     -0.27347918111374
  C   5.16417373235096      3.35953641989872     -0.06145419753427
  O   5.94799652904763      4.10137706899225      0.75602521758738
  C   7.31910126176449      3.91985228489946      0.78598905890636
  N   7.98809786797343      3.93736140361468      1.84269228406318
  N   7.86822087736674      3.94654278936920     -0.48641995126084
  C   8.26470168612981      2.97073009021630     -1.15798154828026
  O   8.28257867746074      1.65419854147595     -0.86590158078175
  C   7.57219748784806      1.04305254544231      0.13044641837840
  C   6.27758884467469      1.18547301886509      0.38942935183818
  S   5.56371155061803      0.14335888055408      1.62376222759425
  C   4.23461630758248     -0.57100090593007      0.66934289683836
  N   3.61971363595552     -1.58694005002701      1.09599032013733
  H   4.34871778724324      3.93208042838855     -0.48235425423695
  H   7.37905098131148      4.02178125658235      2.65346666060182
  H   8.71801120012502      3.12324439679323     -2.13164383135846
  H   8.17615458674027      0.31920113498559      0.66087698980399
  H   4.00494352452827     -1.93918205295919      1.97123879275674
