21
Coordinates from ORCA-job 20499optt
  Br  1.03542721383809      0.00421388567151     -0.53319352062531
  C   2.87798401433167     -0.16924805627219     -0.26277574922920
  C   3.52012675637357     -1.36585302243150     -0.19033559226391
  Br  2.67409062719187     -3.01705760174528     -0.37164271270473
  C   4.91816732482309     -1.33011321862309      0.03164191282361
  C   5.98819445459004     -2.19120062932101      0.21393063744625
  O   5.90552916559251     -3.53563102435148      0.27872316475405
  C   6.90744830920430     -4.33480654901199     -0.22971835914871
  N   8.03754538702952     -4.02529530209388     -0.66085493879586
  N   6.48279283999638     -5.65228756061179     -0.19784281198271
  C   5.26082927040384     -6.14525862517721      0.19644708501552
  O   5.00150367715094     -7.31845256825795      0.17156292733247
  N   7.09682609556477     -1.47323114490629      0.40369557009619
  N   6.82132788966931     -0.19876572913602      0.34815751260513
  N   5.52299728127252     -0.09804013413095      0.13720192249100
  N   4.91999762397630      1.09059974885604      0.05490429154016
  C   3.64309036160031      1.03742254877024     -0.13417270404170
  H   8.25207119717424     -3.03780804480218     -0.57280426123592
  H   7.17035970363774     -6.32471102551175     -0.50936239675135
  H   4.55988749884951     -5.37253271876336      0.53149259544196
  H   3.13980330772936      1.99305677185019     -0.20205457276695
