18
Coordinates from ORCA-job 20495optt
  Br  1.06523525850671      0.02931925219163      0.31221470070563
  C   2.92528803383546     -0.00997959998628      0.05992757613828
  C   3.65121530186726      1.12730583324529     -0.03970763864233
  Br  2.84286468934526      2.81834808746526      0.08604739988252
  C   5.08152315776579      1.16443201677244     -0.26118255924378
  C   5.82534069355352      0.05348479669335     -0.36182738088060
  O   7.15940205890291      0.08358074367536     -0.65071087520495
  C   7.82253923418705      1.28695997909117     -0.54764259008911
  N   9.00696082129130      1.42657918407953     -0.91618556387879
  C   7.01393199943968      2.38411029219707      0.08458616652828
  O   5.68472239932661      2.37989008583662     -0.40584542329424
  S   5.24363836278762     -1.56456948132734     -0.19969326105919
  C   3.48563766026374     -1.36963239985603     -0.01462426547339
  N   2.75216650997499     -2.39796160962358      0.07085987199174
  H   9.39373737180226      0.56047607742349     -1.29028049498913
  H   7.45642575278918      3.34301281043748     -0.16183383220134
  H   7.00648575053426      2.24183167608002      1.17123804889268
  H   3.26988494382635     -3.27118774439547     -0.00233987918229
