24
Coordinates from ORCA-job 20491optt
  Br  1.77083701149503     -0.85005003888192      1.65195506174229
  C   3.28892926744909     -0.28698590724254      0.72424318449602
  C   3.81770271932781      0.94397436628679      0.74835852779285
  Br  2.97357208141566      2.32298276461931      1.71693672505264
  C   5.01362734984916      1.23411092881530     -0.03823758833689
  C   5.50054439735693      0.23934826127997     -0.80654951516191
  O   6.51358510404079      0.28795967049135     -1.72389094204014
  C   7.76532363780221      0.84056285528408     -1.54079220479525
  N   8.72603531117906      0.48336234032007     -2.25893471669262
  C   7.86932499527823      1.94807027091545     -0.53606950241725
  N   6.80111797463124      2.92014352647239     -0.67906947060363
  C   5.59260562401283      2.62984984263113      0.06113082942608
  C   5.98902393376805      2.98015213981543      1.50175453098380
  O   6.37537431396037      2.17383510293007      2.29631699951979
  C   4.89029523614595     -1.10484560407353     -0.82675233533202
  N   5.23707838613960     -2.10476040044161     -1.50034755024818
  O   3.80975703037259     -1.28368364859729      0.00489770522533
  H   8.46781001541885     -0.27615470937161     -2.88799354442389
  H   8.84345151499882      2.41254020518205     -0.67280497230361
  H   7.83516601332106      1.53486490368067      0.47487842763338
  H   6.62741342853790      3.17372297370889     -1.64151031730083
  H   4.82885115528049      3.34667534266758     -0.24845019482881
  H   5.99950437227582      4.06404857972644      1.71059266970216
  H   6.04006912594237     -1.87672376621850     -2.07766180708933
