19
Coordinates from ORCA-job 20505optt
  Br  1.17298143569373     -0.15593365754451     -0.08569247857318
  C   3.03833346814613      0.05826170276663     -0.07373025780543
  C   3.64439244733053      1.25599141167025     -0.07183173642189
  Br  2.70458286898460      2.87192913280453     -0.08059042358125
  C   5.09971727797767      1.31377233808157     -0.06338421862271
  C   5.79589251611488      2.45137975136595     -0.05859754033028
  O   7.15898548565731      2.50957112000148     -0.05337072277921
  C   7.90981224434450      1.39197277922920     -0.05576516276666
  O   9.09244134518904      1.46093024827122     -0.05484754425969
  C   7.17860524382400      0.06186585151673     -0.05870551249039
  N   7.93909464023933     -0.94938847465577     -0.05817024370014
  S   7.43960527297000     -2.50944998055803     -0.05978761747522
  C   5.68525319956646     -2.45704934815601     -0.05785449416961
  N   4.96873504461911     -3.49259371984774     -0.05386781274852
  C   5.00985919579332     -1.11214770245338     -0.06253647635769
  N   3.73836180240226     -1.11987577358479     -0.06748876155490
  N   5.77502670078461      0.05665186038894     -0.06163733681231
  H   5.33843713665210      3.42374323518790     -0.05923378867923
  H   5.52188267371036     -4.35063077448418     -0.05090787087171
