23
Coordinates from ORCA-job 20508optt
  Br  1.13087639048309      0.72716078055814     -0.57498977036070
  C   2.96027840504105      0.45557888760695     -0.20990936708908
  C   3.77891010899581      1.46531419992043      0.17598034656022
  Br  3.19833585804966      3.24327568457229      0.38113932889483
  C   5.15010816015308      1.15871902885003      0.43210709079077
  C   6.23287374985740      1.88214822837238      0.83596246632055
  O   6.38751392896043      3.16648658282468      1.21286051481879
  C   6.51347920872992      4.10915773603778      0.20938587230982
  O   6.63344529527689      3.83245769592847     -0.93407618422034
  C   6.45616478556591      5.47558530661376      0.84868036589979
  C   6.60560219485158      6.56752306553344     -0.09898114639004
  C   6.72412937269741      7.47465263575488     -0.86790739178057
  O   7.31669765431401      1.10635515918236      0.91510890316068
  C   6.96824037258655     -0.15319172521058      0.57079201168014
  C   5.64049259051666     -0.18872468199065      0.26138822004155
  C   4.73987415766233     -1.21688636829147     -0.14709894045281
  C   3.44698907959348     -0.89294340080979     -0.36850432422161
  H   7.22751979115408      5.51516614061330      1.62140741008589
  H   5.49759776144620      5.53757387255447      1.37139330194068
  H   6.83117247014975      8.27551508590165     -1.55982054406889
  H   7.74910620450258     -0.89053707477135      0.60202457637257
  H   5.08511249367811     -2.23369330920698     -0.27690019589958
  H   2.73547996573393     -1.64469353054426     -0.67904254439268
