24
Coordinates from ORCA-job 20509optt
  Br  1.12941219474926     -0.17241032538503      0.02244814783283
  C   3.01129759596708      0.01800716384090     -0.05734902393187
  C   3.59772323830042      1.27785287298549     -0.06270628845441
  Br  2.61825882414892      2.88039041678546      0.02863897209763
  C   4.99257646298737      1.35269275964333     -0.13233694103881
  C   5.69336978313123      0.14963680584648     -0.19218026287188
  O   7.05981162413485      0.13542972331757     -0.35391667833802
  C   7.80536383063042      1.24827243247249     -0.11947429024564
  O   8.98251485240182      1.21125439856821     -0.26471438958155
  C   7.05276090270827      2.46746898213765      0.36986943822582
  N   5.71137849717105      2.51465379948906     -0.17644838282056
  C   5.02655420355402     -1.06171720399681     -0.15935429243944
  C   5.79541295847858     -2.35428670304259     -0.20114889358091
  C   4.87077215810331     -3.57062431948469     -0.19688166212234
  C   5.64063758425437     -4.81286816709805     -0.18801361505280
  N   6.26102365502113     -5.77618893294604     -0.17842565752225
  N   3.69738931919311     -1.10210855205480     -0.09693535704333
  H   7.62025050543987      3.34000274046934      0.05903744309461
  H   7.05644658313964      2.42469811850373      1.46735075297345
  H   5.19003297280862      3.36508844975044     -0.02294436971787
  H   6.47306676272642     -2.39275346592066      0.65505317008346
  H   6.43602509470135     -2.36674913444752     -1.08544500920806
  H   4.22142266463739     -3.56230192813279     -1.07251086236506
  H   4.21749773161142     -3.55343993130117      0.67538805202700
