22
Coordinates from ORCA-job 20510optt
  Br  1.25086918740345     -0.37175414525289      0.45572884035255
  C   3.12462460076396     -0.16560789353464      0.30765596794980
  C   3.70665155213880      1.08761865926499      0.28248704521078
  Br  2.74213227416896      2.68614055212815      0.43026717077874
  C   5.11107273297937      1.13048119914177      0.14803403701566
  C   5.80600371141624     -0.05396503970192      0.07601485910989
  O   7.16170299283615     -0.09299834326999     -0.04296189949267
  C   7.87535474880833      1.06714590636575     -0.09056720021704
  O   9.06187035445116      1.04223160008898     -0.18310122036449
  C   7.05928202427950      2.30793273008017     -0.01965096276430
  N   5.79360842920885      2.34489791057915      0.09254227620604
  C   5.12254404984581     -1.28556435593041      0.13483956159643
  N   5.80410715385211     -2.45176728443487      0.09836085408599
  C   5.11679986446993     -3.72879574664667      0.15509375276787
  C   6.08231686404194     -4.81188627004339      0.30911709628994
  C   6.88474582960262     -5.68919373256469      0.44045291657962
  N   3.80464006206221     -1.30227287430096      0.23382434948077
  H   7.62620590265635      3.23235271365605     -0.06621754847809
  H   6.80450500134118     -2.43266271614237     -0.00746946846233
  H   4.51910720714021     -3.88477667003018     -0.74762130660280
  H   4.41988509871783     -3.72621166982764      0.99607691550325
  H   7.59597035781486     -6.47134452962441      0.56209396345439
