24
Coordinates from ORCA-job 20518optt
  Br  1.17111404698138      0.04600736398914      0.19347252430023
  C   3.05503547635070      0.00440563216298      0.10639548995544
  C   3.73190583743968     -1.19433966134836     -0.08723935046946
  Br  2.90980081847139     -2.86885773581126     -0.29878549771556
  C   5.11365561494177     -1.11860358964471     -0.12322515127259
  C   5.79116766965297      0.07691118304171      0.02157786376981
  O   7.13603671355388     -0.14343130674988     -0.04585958227231
  C   7.34217153370182     -1.49440812020132     -0.23250857782203
  O   8.41359683178313     -2.00126656258056     -0.32259510005618
  N   6.09236640592046     -2.07661110185401     -0.28494293539923
  C   5.12648611384572      1.27668665876870      0.20934412405320
  O   5.86062601411843      2.39607622129575      0.33795310102690
  C   5.16966155742015      3.60544485173170      0.60536330615912
  C   6.21884751953994      4.68855925972326      0.79563130976401
  C   5.57688160086116      5.96641120219366      1.08513910178988
  C   5.00650314072262      6.99197053513790      1.32112080051667
  C   3.73199333115828      1.21394070452749      0.24847687391989
  H   5.95339020080645     -3.06571680158586     -0.40808869579255
  H   4.56527599635679      3.50078812050536      1.51047552182658
  H   4.51074073442354      3.85619309030097     -0.23067739017921
  H   6.82792526403345      4.76587201854856     -0.10651312431512
  H   6.88233167190596      4.40716087307097      1.61533165220922
  H   4.51129317091679      7.90967107330883      1.53174540299249
  H   3.14919273509347      2.11013609146895      0.39140833301080
