22
Coordinates from ORCA-job 20517optt
  Br  0.98512937527444      0.41422250246748      0.33412861873463
  C   2.83174038225950      0.15229365465075      0.13938764765934
  C   3.38718658275989     -1.08434775383020      0.14329854658018
  Br  2.40468382263967     -2.65366668240714      0.40081843204206
  C   4.81579585276513     -1.19726491589758     -0.01103917950603
  C   5.73719085250062     -2.18730248878608     -0.06968016327515
  O   6.99866405645508     -1.61128536175336     -0.14777903158165
  C   6.89682915555282     -0.26275867308021     -0.16738464503448
  O   7.79123162242001      0.52047127521187     -0.24909079970650
  N   5.53495033692886      0.00110453880651     -0.07839679088763
  C   4.96442718276526      1.24795880092188     -0.07917584989445
  C   3.63089759665239      1.34995852130669      0.01122370479555
  C   5.68031024784950     -3.65596212204947     -0.15228759917986
  N   4.95162608713248     -4.32021972843180     -0.94772333547287
  N   6.54455097724860     -4.35292845206340      0.68383165830022
  C   7.14940067991353     -3.90128439562796      1.83128289129779
  O   7.82635369753076     -4.60315099226329      2.53199633125083
  H   5.65912273392621      2.07218617674270     -0.15499475318068
  H   3.14837483907309      2.31414737032490      0.01002698434406
  H   4.41964237434513     -3.70747455712400     -1.55814561244805
  H   6.62941834570512     -5.34295593174226      0.48817037752715
  H   6.95047319830184     -2.84374078537600      2.05153256763553
