19
Coordinates from ORCA-job 20524optt
  Br  5.38301400422723     -3.20263057376023      0.47937917065685
  C   4.97466400625510     -1.39757763665975      0.13897234333534
  C   5.91467469549486     -0.42096195357662      0.21038986896613
  Br  7.70336799464040     -0.78733305889174      0.63848314515149
  C   5.58331441274110      0.96826222289925     -0.10026312713297
  C   6.44611292140549      1.97899664820788     -0.28137367099493
  O   5.93769910310784      3.17502913865466     -0.78773811363486
  C   5.14245024250536      3.91640083299393      0.02657540997550
  O   5.48983897488781      4.79781055714222      0.72066257868080
  O   3.80302164100774      3.61192589144646     -0.10373144545332
  C   3.46077006748619      2.35019795567543     -0.35016632750139
  C   4.17622911132493      1.20811978770480     -0.30302676808501
  C   3.23103929729891      0.14433728405723     -0.40454747789155
  C   3.58415983778748     -1.13227070923664     -0.19076584589786
  C   1.90558256063034      0.77620919717764     -0.61153122369927
  O   0.82135761899436      0.34111191105692     -0.77857121823523
  O   2.14098052200813      2.17032073654627     -0.55806061938782
  H   7.51614932923484      1.95959193495697     -0.15659423525825
  H   2.87557365896182     -1.94754016639469     -0.21709244359364
