19
Coordinates from ORCA-job 20529optt
  Br  1.00919142514698     -0.24054672958370     -0.21694856302551
  C   2.87579259118490     -0.02646435989825     -0.15531421758202
  C   3.47379688212295      1.21416664078000     -0.16298152700257
  Br  2.50164479353008      2.81653527203505     -0.22065405764804
  C   4.87641464376660      1.28627310941275     -0.12130707866694
  C   5.67587821905609      0.17516998008111     -0.06687471467366
  O   7.01982093609783      0.33528476037790      0.00387022240421
  C   7.40125718446036      1.68739998235999     -0.16193295083319
  S   5.90182806766035      2.71972841737205     -0.01653771122114
  O   5.81363778289853      3.28786752696544      1.29466157653284
  O   5.80202235698136      3.55530430765221     -1.17398177405601
  C   5.08123171995002     -1.08739383128847     -0.05753143433072
  C   3.68567181969955     -1.18060736607023     -0.09827418873968
  C   3.31314222863894     -2.56752519482274     -0.07044360279150
  N   4.29112813461145     -3.41623210295886     -0.01423810022949
  S   5.75967953155295     -2.66059320049847      0.00870782499919
  H   7.80782908809582      1.84766582856863     -1.15973749510712
  H   8.10054714064197      1.97338778113220      0.61971964477813
  H   2.29248545390323     -2.92542082161661     -0.09020185280675
