20
Coordinates from ORCA-job 20525optt
  Br  1.63634845012370     -0.94707609549063     -0.26067552985563
  C   3.35151349171526     -0.20783629841596     -0.12030414059031
  C   3.60182375876355      1.11518517756397     -0.12046352381699
  Br  2.22327291532511      2.38556659492676     -0.22470310760500
  C   4.96943351500316      1.59910746901870      0.04726253906540
  C   5.35292076246500      2.85810522653497      0.28855087011391
  O   6.65829826423120      3.11388780891806      0.66689379855795
  C   7.70937787176819      2.91852511926202     -0.18621460990647
  O   8.27559222209832      3.78908066791922     -0.73886769785993
  O   8.15351131254602      1.63261579771899     -0.25456998189487
  C   7.31695569298533      0.60550118247767     -0.03561656578812
  C   5.98139927127249      0.57436639382245      0.03696522776952
  C   5.65681362897607     -0.85144559448123      0.05211992153587
  N   4.34263341716053     -1.18096393856800      0.00518323087396
  N   6.65781947016507     -1.66357039331890      0.06643593076687
  C   7.79320244500871     -0.81728059487383      0.02660598500784
  N   9.00961384207930     -1.14048904650381      0.03452730483086
  H   4.71108897404867      3.72529865084366      0.31484997914031
  H   4.08329595745408     -2.15466573967990     -0.05326990132525
  H   9.09508473681017     -2.15691238767419      0.08829027098009
