21
Coordinates from ORCA-job 20523optt
  Br  1.05569420545930     -0.39099341006433     -0.22175261696937
  C   2.93143167074333     -0.24377244242738     -0.12579085548345
  C   3.72663172471878     -1.39359080057479     -0.07538876048237
  Br  3.08370999675474     -3.14808550472246     -0.06300610150298
  C   5.08360392385769     -1.16033648141961     -0.04061578574877
  C   5.62904118945090      0.10011626643136     -0.03417023351910
  O   6.99101520820470     -0.01917407523100      0.00408305102079
  C   7.28052047242526     -1.35864040263393      0.02207866395133
  O   8.35883557766527     -1.82427242210953      0.04788526450112
  O   6.10527581875038     -2.06244830477944      0.00431288792228
  C   4.86270174015572      1.24801811161795     -0.06758657879782
  N   5.46124584638055      2.50088633887914     -0.08890594485439
  C   4.98276942940722      3.65697636558519      0.47515271173599
  N   3.97008460098059      3.88068234253031      1.20409697472303
  C   5.86344148267210      4.84560035076690      0.17142885162097
  O   6.87536905510564      4.74629878150663     -0.46166032790643
  C   3.48022079070452      1.03493631975345     -0.12940348881522
  H   6.39202819220413      2.58357083220534     -0.48109396105168
  H   3.43409716173872      3.04507989960975      1.42764278012152
  H   5.49446826776697      5.79160839037060      0.59472047907699
  H   2.81581364485341      1.88153984470584     -0.22302700954246
