22
Coordinates from ORCA-job 20521optt
  Br  2.91421986782546     -1.34441040145924      0.35908914314075
  C   4.20634582233843     -0.03476386556691      0.03920211425633
  C   3.94878415316703      1.28399406625469     -0.01922660023456
  Br  2.22496079540494      1.96013408272185      0.29474275647340
  C   5.02177008143918      2.24123612499606     -0.32078742246767
  C   4.94524108798765      3.52492240312153      0.07393307971898
  O   5.88826877224791      4.49558063337731     -0.04246539530617
  C   7.24916640929488      4.26841395238615     -0.03550022804838
  O   7.96049493370659      4.97186557806146     -0.68193053777797
  N   7.66445370556258      3.21993383732371      0.74287604036600
  C   8.83871015618476      2.54444589757459      0.33970303918657
  C   8.87908393538215      1.24936798707275      0.00689570023330
  N   7.85397299257060      0.30385216701288      0.07189717715926
  C   6.66200821212377      0.52365550617617     -0.28817586269468
  N   6.15334028244805      1.65768920786406     -0.92462452039435
  C   5.60659366339086     -0.54121489367625     -0.05236732419855
  O   5.89365062496177     -1.69447253316461      0.08129526333416
  H   4.02369149142765      3.91624747894184      0.47483544177664
  H   6.95252575764924      2.67531639359999      1.20809942683578
  H   9.73130453620056      3.15097284490779      0.29926727494652
  H   9.84895062166774      0.82647117812576     -0.22345054942716
  H   6.85646209701812      2.29076235434840     -1.27830801687819
