22
Coordinates from ORCA-job 20533optt
  Br  1.10049452582975      0.37718625682624      0.75295755199334
  C   2.90699876704138      0.27710819354383      0.28730956565391
  C   3.72954865202641      1.34100417698717      0.26624981945718
  Br  3.12532926411849      3.06997365192372      0.68606211532044
  C   5.11963880596816      1.21239662847165     -0.11067629794734
  C   5.91518503423370      2.23645920687377     -0.43604965491344
  O   7.19146955460919      2.09467863006246     -0.80173656112156
  N   7.83386456725520      0.89853376690785     -0.47565343815906
  C   7.10686092912137     -0.11708003491269     -0.19654240175161
  N   7.69219656724199     -1.27710430139038      0.20693776130719
  C   9.04956077077589     -1.48402418379008      0.49763703486984
  N   10.01307724010540     -0.67891520986528      0.48743652351037
  N   5.67886549740839     -0.09596637884560     -0.21056172567412
  C   4.90671893326252     -1.22549408383562     -0.26269484121946
  O   5.35362086869103     -2.34494204510978     -0.41383701067984
  C   3.40918872752005     -1.04813879449298     -0.08456468562692
  N   2.65182592005249     -2.05044378694068     -0.20774075748502
  H   5.59148403212398      3.26519646573395     -0.43491538910587
  H   7.09083352413244     -2.09081121089384      0.17154153766622
  H   9.21234149553671     -2.52183821774577      0.78283814400583
  H   9.73898017287345      0.25360415716466      0.18899142538090
  H   3.21291615007181     -2.87138288667263     -0.44798871548098
