22
Coordinates from ORCA-job 20539optt
  Br  1.00867699979084     -0.18754682836277     -0.31281111810099
  C   2.86731165826685     -0.06105389248873     -0.11300916825827
  C   3.65027178320967     -1.15334600149664      0.04926804664008
  Br  2.88140046770801     -2.88243891606991      0.01131405628242
  C   5.08693659781425     -1.11031958392301      0.22993093445329
  C   5.78839079355127      0.02472752603467      0.00451780997914
  S   5.10973444828162      1.56475236812974     -0.38434199009042
  C   3.37954429254491      1.32470711956287     -0.10740677101304
  N   2.59466781577235      2.31190444427499     -0.00156389243287
  C   7.29308262221175      0.01294147394111     -0.04212909702725
  O   7.91478627905436      0.99591303721982     -0.35017997224720
  C   7.92469782843940     -1.33309392714521      0.29974586215161
  N   7.11311623662509     -1.98646875796162      1.32697912066654
  C   5.90963821779483     -2.35770487521400      0.58093647810317
  C   6.54007238307033     -2.88537157148943     -0.70654933103604
  C   7.70025046888251     -2.27341281884802     -0.87738991218496
  H   3.08468792609578      3.20484561436228     -0.00557362585826
  H   8.96416969748525     -1.18991401696509      0.58830587515617
  H   6.89333878940159     -1.35972404704633      2.09498186567162
  H   5.31176835754363     -3.08200662124453      1.12585133459243
  H   6.04664469266686     -3.57938758860969     -1.37038028096421
  H   8.37581164378880     -2.34800213666051     -1.71549622448293
