26
Coordinates from ORCA-job 20536optt
  Br  10.26370356898772      2.30743295911387     -4.28048484385043
  C   9.06097709120510      2.04093920531377     -2.86072928586482
  C   8.95841213042529      0.87548127487337     -2.18370065003971
  Br  10.16360440283699     -0.52568713917930     -2.62029554490382
  C   8.03274007295810      0.59516645708647     -1.08109313231832
  C   7.48180151778636      1.63557489810701     -0.40886733058562
  S   7.61266109123126      3.29051662439027     -0.91279365428944
  C   8.21900495424521      3.20976978702549     -2.57017469595260
  N   8.05216942463642      4.15766004918504     -3.38976561614558
  C   6.77393336867108      1.58973417787830      0.94307456288357
  C   5.32679668248360      1.05093670753909      0.97706919640455
  N   5.51764822492789     -0.37496287400328      1.27404309408682
  C   6.71867865878435     -0.49140984588954      1.64340119441721
  C   7.55226245550671     -1.72202862770722      1.55307330751353
  N   8.38735784023300     -1.47554200622841      0.36277400250214
  C   7.70593451903831     -0.87570086184627     -0.78904557171496
  O   7.45855113199387      0.64620693863050      1.75875046635696
  H   7.44669704643140      4.88948093302341     -3.02253320238878
  H   6.85849382427568      2.57032021803862      1.41121588411447
  H   4.81251309456871      1.16496489004377      0.02391705550520
  H   4.73377155377711      1.53630900431171      1.75471411132794
  H   6.88218820235341     -2.58140108740015      1.46500136246328
  H   8.20207942168524     -1.84351857415387      2.41960382047098
  H   8.87467847888106     -2.31695468250686      0.09147828218513
  H   6.62215261625705     -0.96279585619907     -0.70018152832810
  H   7.96718862581898     -1.44149256944672     -1.67745128384960
