21
Coordinates from ORCA-job 20541optt
  Br  1.02755336305300     -0.46028538069688     -0.60949279556642
  C   2.81841219162198     -0.52332719358338     -0.05575890826513
  C   3.80677672560239      0.08350635622422     -0.75237129079789
  Br  3.44416281915586      1.00389835091397     -2.35029310166584
  C   5.20961084155328      0.06091667218485     -0.37040113897618
  C   5.69379123362950     -0.75240760073890      0.59909288153308
  S   4.68492092715404     -1.69704075748454      1.65169069693899
  C   3.02804211506061     -1.24203850192785      1.21290653837294
  N   2.05856731377267     -1.59946381584101      1.94387120617625
  N   7.02359519184312     -0.91155422346846      0.93093527647234
  C   7.95817771112962     -0.90619814406533      0.05336117740849
  N   7.84344981358086     -0.66299079269972     -1.30310749531389
  C   6.95292356330750      0.21340561468831     -1.93776621448223
  O   6.93274684173112      0.32196909634658     -3.12279842538862
  N   6.12428280795098      0.94090340679604     -1.02899090337540
  C   9.29121782792295     -1.25037552422714      0.47216317156658
  C   10.40588218404366     -1.55489637541078      0.78286408187387
  H   2.35606284586496     -2.07349786061491      2.79462525669345
  H   8.59173088694546     -1.00111279294870     -1.89408198729833
  H   6.70103372659402      1.41882305677751     -0.34160025855658
  H   11.39305906848228     -1.82623359022386      1.07515223265054
