22
Coordinates from ORCA-job 20558optt
  Br  1.13038697034654     -0.25497702059425     -0.41299823498311
  C   2.99273703929157     -0.05058618519762     -0.21167682332152
  C   3.58131600829126      1.16497498748635     -0.00236260671877
  Br  2.53705167927789      2.71966611989284      0.15070031836279
  C   5.00944971596143      1.25180175948228      0.11225131089836
  C   5.82224880603673      2.37032126290158      0.27355992847330
  S   7.45049086544701      1.90622528725155      0.35487135349218
  C   7.13526991256431      0.26545763452532      0.17655609070453
  C   5.78023628917219      0.03193213506467      0.04538274551029
  C   5.11592858118078     -1.21859009122791     -0.15266370137117
  C   5.86705765938896     -2.49517355280757     -0.21757365971204
  O   5.35246526847602     -3.56448889392587     -0.40683918602509
  C   3.76395847944924     -1.24078603212708     -0.28541479366968
  C   5.49310545246255      3.81469868917346      0.38211354415074
  C   6.37649127286899      4.84120575241365     -0.18601928976775
  O   5.15599924218505      4.49768638412477     -0.81103796403429
  H   7.94517081947919     -0.44361320172099      0.16985670531394
  H   6.95955095878310     -2.42230692830742     -0.07625382162608
  H   3.26793645688857     -2.18924834522522     -0.44409594849205
  H   4.88338701191442      4.09490015883103      1.23377867590919
  H   7.26953663026510      4.54365660423916     -0.72534289498989
  H   6.40322488026905      5.82224347574726      0.27420825189611
