22
Coordinates from ORCA-job 20552optt
  Br  0.90230962547520      0.03160116677026     -0.13559029492324
  C   2.78137290695012      0.03311978825573     -0.11583592096710
  C   3.53309327686867     -1.09202148588135      0.04955452918570
  Br  2.62185055153914     -2.72689305124987      0.32351011070412
  C   4.97308924409518     -1.16106572874518      0.07083645942720
  C   5.71017094810141     -0.02236842288833     -0.02098931337800
  S   5.09786790401488      1.57089592249001     -0.25592799308118
  C   3.32670607269239      1.37569392177119     -0.29353979538827
  O   2.69012186997766      2.37996131204331     -0.45955322360295
  N   7.10349849917652     -0.08325125535741      0.06406454961546
  C   8.02925843324274      0.92534597252215      0.28085157955893
  C   9.23971730588791      0.31280975609075      0.22259109744904
  N   9.09740658855307     -1.03528255078252     -0.03286968251293
  C   7.81965580073662     -1.24268644990963     -0.12423674589261
  C   7.06630897924373     -2.48107955056608     -0.44093739054662
  C   5.71796160509787     -2.46669647639635      0.27630956230590
  H   7.74146027315038      1.94219188852716      0.47993909191191
  H   10.21032228094669      0.75927070628548      0.35801724880249
  H   7.65722026292414     -3.34743776011371     -0.15122065381518
  H   6.90733152343994     -2.53575838225883     -1.52257882049130
  H   5.86367510855273     -2.62248440819693      1.35046643818889
  H   5.11860093933293     -3.29686491240984     -0.08286083255027
