23
Coordinates from ORCA-job 20563optt
  Br  3.01459758036342     -1.17041818530831      1.02541868103585
  C   4.24771231200386      0.12325514718883      0.45689299629660
  C   4.31979411857215      1.37346557166191      0.93235877739092
  Br  3.17139729588327      2.03953958992453      2.26020691461342
  C   5.31002869961068      2.28009247117602      0.30047197759822
  C   4.88556854726855      3.49068815466422     -0.10268285940908
  S   5.72972587883993      4.66643732562672     -1.09158497187218
  C   7.28579479178980      4.46923766334457     -0.38614287922706
  C   8.50784452437694      4.62453969413372     -0.90223311995588
  C   9.63050683662195      4.18829031078099     -0.07218711824463
  O   10.79792610739797      4.37838862124836     -0.31837892456581
  C   9.30370863316938      3.34268769567839      1.15489962928165
  N   8.53314333715505      2.34733047615550      1.20420714875561
  C   7.85016506731365      1.66421336047597      0.22455834797961
  C   6.53751162963145      1.53283655947726     -0.08176900088022
  N   6.28291686191856      0.34695187701682     -0.80447626316023
  C   5.20633754848935     -0.29013498439079     -0.57000775340565
  H   3.87352695785124      3.79175248069481      0.13792331740208
  H   7.19047686317898      4.14789837141811      0.63974979913971
  H   8.71511104085930      4.97332942676464     -1.90527018396696
  H   9.86776894131127      3.59924389196184      2.05109583242079
  H   8.47570491595567      0.91560392197050     -0.25712791271725
  H   5.01873151043749     -1.21722944166463     -1.10192243450950
