21
Coordinates from ORCA-job 20560optt
  Br  1.20648796001686      0.23653450810417     -0.19068806994899
  C   3.08497760902617      0.21113223241011     -0.04734514140954
  C   3.77679282915521      1.36606775840795      0.02196125267756
  Br  2.96592278586612      3.06194864546064      0.01657156902319
  C   5.21446947383688      1.31020405515671      0.09841479551126
  C   6.11343745261524      2.33899295589545      0.19637112744250
  S   7.71119008646490      1.75657976762858      0.24293052951010
  C   7.21626568918673      0.13828719302104      0.13198085599393
  C   5.85450212621338      0.03707513772442      0.06134861958876
  C   5.08610045036435     -1.20803321748833     -0.04200021551475
  N   5.55759383855580     -2.38735584406841     -0.13293452226647
  N   3.69039511010969     -1.04070060434049     -0.02302296640893
  C   2.90281050014415     -2.27586126429701     -0.09583599141978
  C   2.51594035588938     -2.61954978926415     -1.46385837509087
  C   2.19352376067636     -2.89744141988159     -2.58196182871942
  H   5.90313835910621      3.39458223673381      0.24014184712520
  H   7.94715546107932     -0.65402950162487      0.12767810582607
  H   6.57123242490639     -2.37714033167953     -0.12002544694135
  H   2.02074516522510     -2.17573199335079      0.53079892882419
  H   3.53317752927100     -3.06409279950546      0.30801112504563
  H   1.91214103229066     -3.14846772504224     -3.57653619884826
