23
Coordinates from ORCA-job 20567optt
  Br  1.09212711227450      0.12662717053181     -0.24668487953705
  C   2.97340870641133      0.09486183574811     -0.07793792125399
  C   3.66306227244324     -1.08997732438373      0.06800474317862
  Br  2.83391987398822     -2.77216489487541      0.12561017067587
  C   5.06364356764208     -1.01282112106908      0.17696269846592
  C   5.70808295747342      0.22732007764346      0.14097139262971
  S   7.41015970902755      0.00262870714914      0.30567717776610
  C   7.12678242844327     -1.70576202136893      0.40198463566660
  N   5.90619446530464     -2.09397129656049      0.32679987590947
  C   5.00307422367294      1.43296558655267     -0.01095803771579
  N   5.66398418178437      2.63520478822614     -0.02337091134805
  C   5.00327965336437      3.85553348656861     -0.35872439924723
  C   6.02269994930590      4.95193857428843     -0.56644391549842
  O   7.20749919756144      4.74893349661046     -0.53281398937212
  C   5.45481536225732      6.26657138658534     -0.82713843034749
  C   4.93525186131289      7.32429744620125     -1.03920970287663
  C   3.62336807082168      1.33604027257442     -0.11718407253851
  H   7.96249507587815     -2.38146783153064      0.52232855145497
  H   6.66452703872150      2.64621451027694     -0.16231941540402
  H   4.30924794099544      4.18137808378411      0.42537583058130
  H   4.41370220534389      3.78532085143127     -1.28528386454322
  H   4.48949041552944      8.27355172765234     -1.22627266946749
  H   3.02018373044237      2.22477648796379     -0.22737286717854
