22
Coordinates from ORCA-job 20574optt
  Br  1.55225356344141      2.01257366710304      1.13498907520247
  C   3.19737382615563      1.53294787305629      0.38317558100931
  C   3.55735310775469      1.77613912713620     -0.87743221629685
  Br  2.46273394945637      2.59665680330003     -2.15419247735717
  C   4.94045912899329      1.39217264628216     -1.22266075782421
  C   5.89090215252810      2.20434128515006     -1.70275856406922
  S   5.77277308482399      3.94109357185796     -2.03575303295094
  C   5.97600973192244      4.65005962139907     -0.37044804185981
  N   6.93413626913157      5.37060221254010     -0.02172280287677
  S   4.56565735167956      4.37245305573351      0.70418460816687
  C   5.33824096121368      3.58043258795812      2.09795778258868
  O   6.45650973690720      3.65935502994098      2.46180044374462
  O   4.38883564888175      2.74368082829250      2.69962994977963
  C   4.70936808514803      1.44372273688827      2.33617513808021
  C   4.20802264153435      0.88040285742744      1.23784558566342
  C   4.95181455057228     -0.21142457945777      0.56387049532591
  C   5.32485858386864      0.05719775885985     -0.68628961674804
  H   6.88351322592218      1.79424613827329     -1.85211830639579
  H   7.66448437273806      5.40031985787027     -0.73484973830690
  H   5.49833398223712      0.98810116410799      2.92275304015624
  H   5.26079618622767     -1.09729990448087      1.10239065264469
  H   5.96556985886192     -0.59177433923851     -1.26854679767635
