23
Coordinates from ORCA-job 20570optt
  Br  6.15424144151451      1.29224699901244      0.26743077757875
  C   6.54091532577598     -0.54245041401740      0.12027837752886
  C   5.61857897618107     -1.48057698322385     -0.13726488022848
  Br  3.80883321834180     -1.02081405427567     -0.41123930485834
  C   5.96732990644260     -2.90799092608890     -0.18822798823559
  C   5.12549338079594     -3.87410910799210      0.22831866213184
  S   5.37241662534401     -5.61392317217198      0.30258650230313
  C   6.88454471484355     -6.06271879555846      1.20310626098552
  N   7.06627747709701     -7.26654332846956      1.52059183686276
  C   7.92217380614572     -5.02612668522520      1.36049394684713
  C   9.03190547383390     -5.18091888653246      0.65178005443862
  O   9.99230105896803     -4.23264453599421      0.40983541069408
  C   9.77695699978456     -2.96859806040080     -0.09938245129361
  N   10.75047762855369     -2.21901631750746     -0.35155263947377
  C   8.38058161417703     -2.46738779931772     -0.21649912201013
  S   8.23275529336230     -0.84545139947493      0.41703608815545
  C   7.33379136221111     -3.21040646262113     -0.58498682079439
  H   4.12362107490260     -3.60020787717385      0.53317744831804
  H   6.28330250789767     -7.87101123557720      1.26910451482895
  H   7.66001935904876     -4.09551705213987      1.84557250115049
  H   9.25238309038635     -6.11520521213593      0.14908591404436
  H   11.63678018246549     -2.67868922612526     -0.14504045269311
  H   7.48931948192617     -4.18193946698844     -1.03220463628060
