21
Coordinates from ORCA-job 20580optt
  Br  1.26031580981389     -0.18164145572550      1.07110365619708
  C   2.98634187875967     -0.03676651137407      0.34579059647360
  C   3.56620055890332      1.16799063698184      0.19462695906603
  Br  2.66423995111119      2.79079775794500      0.46997122330286
  C   4.98374851983852      1.24103759323405     -0.06876777905700
  C   5.80380840241219      2.31626296652320     -0.29511702651650
  S   7.39983662637670      1.76341135048306     -0.38800130697269
  N   7.05624472211344      0.19157820144800     -0.14194449012189
  C   5.75998702489776      0.05587982150534      0.00945997563551
  C   5.12061001699881     -1.24370633792980      0.19290896170433
  C   5.82181882428323     -2.38528184466542      0.29395841443245
  C   5.14081727108371     -3.66151969919300      0.38548248058593
  O   5.65725447839121     -4.73610261153183      0.57924145530037
  N   3.76252546320550     -3.56599433506346      0.17957944709101
  C   3.06661823341489     -2.43356139053599     -0.21114296722087
  N   1.96839328062911     -2.39258070025952     -0.82744561300109
  N   3.71771799054285     -1.22803463835363      0.16586773346318
  H   5.53006802334734      3.35527725064722     -0.38587107708125
  H   6.89979200003097     -2.36402031642724      0.28191961938794
  H   3.29621983944554     -4.45362969171342      0.05481769622189
  H   1.59944108440008     -3.31939604599482     -1.01843795889088
