21
Coordinates from ORCA-job 20587optt
  Br  1.00042331682059      0.04284467841105     -0.09499896787741
  C   2.87717361247556     -0.05000425707993     -0.09815171695916
  C   3.58420175755635     -1.20013742319481     -0.09114808552200
  Br  2.69023435260349     -2.85227713788627     -0.07440148160756
  C   5.04454026553429     -1.26234828610783     -0.09592379571768
  N   5.61921054049900     -2.43045183811301     -0.09435787372607
  C   6.97211854801959     -2.42986848223097     -0.09620911594887
  C   7.87099553128225     -3.45838058720787     -0.09690229893587
  C   9.21362399890492     -2.86017666943429     -0.09604018412472
  C   9.15262134074382     -1.50931524434642     -0.09569416835912
  C   7.74617231531257     -1.16314756055504     -0.09676295142133
  N   7.19234088896788     -0.00500177478778     -0.09981759737187
  C   5.80526906336490     -0.01196581996584     -0.10095067949586
  C   5.21867237077494      1.21278674035763     -0.10801241013851
  S   3.55902726552984      1.53602273181861     -0.11077236773539
  C   7.60904998178518     -4.84654951436666     -0.09900604014050
  C   7.41539908992659     -6.03188837634273     -0.10089742034604
  H   10.11349559931631     -3.45845281545560     -0.09573100569409
  H   9.96756037454135     -0.80473051372361     -0.09503250226332
  H   5.85080209263394      2.09251966590020     -0.11232129644268
  H   7.23306769340658     -7.07947751568879     -0.10286804017197
