25
Coordinates from ORCA-job 20586optt
  Br  1.08449793499716     -0.11080622387965      0.52905690895108
  C   2.95442881743667     -0.14322422659714      0.31701077440322
  C   3.66725404913396     -1.30838669780688      0.30303511458997
  Br  2.90130048773860     -3.00154743308640      0.49113209578680
  C   5.07801107286369     -1.25645527121796      0.14167021782891
  N   5.97089669983744     -2.23061637667529      0.10027532597055
  C   7.13477109138708     -1.58574865919704     -0.12849704957674
  C   6.99390811153622     -0.23922467041487     -0.22740474857880
  C   8.35572236228695      0.39808132459588     -0.21578483068058
  C   8.82818931276737      0.62948085299161      1.23750108228320
  C   9.61058230030578     -0.61607137427392      1.69238373727412
  O   9.04381144768132     -1.85220495691600      1.26870328352228
  C   8.62241579529379     -1.84996466952094     -0.08439513462467
  O   9.12784867132154     -0.70013329207809     -0.73848884591661
  N   5.67198856038053      0.01286472365317     -0.02425911633569
  C   4.94664325169272      1.17116028133038     -0.00266474889990
  C   3.60743970108286      1.11154580214080      0.17022860774826
  H   8.50599707998961      1.25143335339496     -0.87272256507421
  H   7.97080385792341      0.81746357286740      1.88551101951791
  H   9.49333982308742      1.49139765258855      1.30480267794217
  H   9.65316377596673     -0.66892563805142      2.77845704974147
  H   10.63120021339143     -0.54461470070257      1.31123811155766
  H   8.99964662810289     -2.74070194622220     -0.57922708596671
  H   5.49586433034469      2.09158703795373     -0.13346412634725
  H   3.02627462345010      2.02061153512389      0.18990224488355
