21
Coordinates from ORCA-job 20582optt
  Br  1.04596732870849     -0.31941485267074     -0.15003972464799
  C   2.91838913240911     -0.08710262189157     -0.18084646565572
  C   3.50355949557526      1.16315080367871     -0.05563765946676
  Br  2.46712894178961      2.70500453103756      0.20138388498894
  C   4.91026052621667      1.22041209830790     -0.09532367116638
  C   5.63489741906602      0.04433593227914     -0.19928003183656
  S   7.36494831244734      0.01437879686644     -0.05385113161984
  N   7.66391547468745      1.48624803396730      0.80898813662299
  N   6.88456293715921      2.43104228125678      0.81289541924404
  C   5.69961613603614      2.46097900643946     -0.01671439286768
  N   5.41698737376952      3.51388974772155     -0.64081881859077
  C   4.92005561935383     -1.15918406588696     -0.33905722240647
  O   5.64307361702627     -2.27635925308277     -0.48459983742876
  C   4.93917028748227     -3.50437683332967     -0.60850215946953
  C   5.97480576149704     -4.59643752160404     -0.74850563132450
  O   5.67374941464023     -5.74487161776800     -0.88598958428651
  N   3.61629564364320     -1.20706161172903     -0.33700959950042
  H   6.09831508203003      4.24548993047419     -0.42297948688759
  H   4.28813705740853     -3.49376217940040     -1.48513846331217
  H   4.31767979824580     -3.68940445876123      0.27016130753220
  H   7.02848464080790     -4.26195614590462     -0.71513486792052
