20
Coordinates from ORCA-job 20598optt
  Br  1.65045543089334      0.51453798024291      0.28213271574408
  C   3.48202504158590      0.15733135062768      0.18989508593783
  C   3.99545321175366     -1.09778946437543      0.26648407020323
  Br  3.00139422563345     -2.65127014842233      0.48311530998435
  C   5.42060797824614     -1.22509768875991      0.17489434391075
  N   6.16026635919027     -2.29472669799993      0.21450628082578
  C   7.46292442393076     -1.86782316949687      0.05500507949533
  N   8.43875309810528     -2.69050466423905     -0.12062591214390
  C   9.68673739428338     -2.24946781568558     -0.47859774734886
  N   10.31247355326422     -1.15202993546705     -0.27232057696237
  C   9.86131212201644     -0.04404729787911      0.42178239129721
  O   10.54153543722668      0.54528589074069      1.22148365930784
  C   8.50766080856706      0.46554302264697      0.09605090050386
  C   7.48413775712850     -0.38692562544073      0.00658335887159
  N   6.12512695845430     -0.04742829999738      0.01372858288684
  N   5.64208768871985      1.18635923308281     -0.04201727589344
  C   4.35731724711496      1.28822388750377      0.03637640575290
  H   10.23978864135221     -3.00858732926133     -1.02754899141290
  H   8.34669816019033      1.53698125984710      0.10885003595861
  H   3.94624446234320      2.28643551233278     -0.01677771691872
