21
Coordinates from ORCA-job 20596optt
  Br  2.25012272573041     -0.60997582981052     -1.35022221404061
  C   3.82749005317309     -0.14438845419529     -0.47308390428664
  C   4.23249993414792      1.14254726332747     -0.27478280487812
  Br  3.33032561237896      2.61853646194816     -0.98023615052904
  C   5.51675956892449      1.31529539032374      0.37159910622844
  N   6.53632687868426      2.09910848746525      0.16035038657742
  C   7.60735626042340      1.24471980814428      0.56971998047560
  N   8.56174539450143      0.80317528731164     -0.19785436336166
  C   8.61572415486981     -0.56477690000317      0.12602551663957
  C   7.85278649333465     -0.88473605630933      1.19015118322687
  C   6.89823468931013     -2.01116058128189      0.83434467646082
  N   7.60314216697100     -2.60362387655810     -0.30133951641700
  C   8.64329341071852     -1.69609862440916     -0.85863520082721
  C   5.63904074310760     -1.08413426394932      0.62040935789004
  O   4.52778268405849     -1.26554011369398     -0.13587210367737
  C   5.88457409962537      0.13298111424423      1.10748009161418
  N   7.19643482408997      0.31377824477853      1.54081831516411
  H   6.68026382864405     -2.77640598003539      1.58076427931153
  H   7.02599884966614     -3.07063701778120     -0.98422686110542
  H   8.38583072117471     -1.29659513537462     -1.84217690854219
  H   9.59226690646552     -2.22806922414132     -0.93623286592333
