18
Coordinates from ORCA-job 20593optt
  Br  1.16189411320092      0.55564175445944     -0.65039408987238
  C   3.00554681510124      0.30413737283670     -0.39523101916641
  C   3.87713314226766      1.31872978376953     -0.11402445232521
  Br  3.28977784096211      3.09530128730026      0.01108493242241
  C   5.26093073876309      1.08360448454523      0.08134458913030
  N   6.17042593483535      2.01186810042077      0.33446715185672
  C   7.30753035710331      1.29543546257452      0.44488794061078
  C   7.20525375318600     -0.05429326074803      0.28182861124020
  N   8.46663592017749     -0.71098854262877      0.28583965362336
  S   9.56391968753233      0.54449649301660      0.09956114367492
  O   9.78824932539879      0.78347462395120     -1.27390019698841
  O   10.63005652540144      0.39639239458350      1.01834656701671
  O   8.57651222719125      1.75484939765480      0.62442001658266
  C   5.83901479197226     -0.28098646892008     -0.00151850670240
  C   5.10025700406623     -1.38195032866018     -0.29262308269761
  S   3.43589142017400     -1.34180465398186     -0.56928506152494
  H   8.68933005103254     -1.20999104191352      1.14420540698176
  H   5.53164035163392     -2.37191685826014     -0.37500960386246
