21
Coordinates from ORCA-job 20592optt
  Br  0.94347392710974      0.53327167965384     -0.28629803167075
  C   2.79806333114251      0.40360747757773     -0.15016139623822
  C   3.65564187916727      1.43722281582562     -0.27721836590399
  Br  3.03006222085831      3.16425659492188     -0.63203878389096
  C   5.10141609350002      1.25744553911771     -0.15460587293368
  N   5.84322463685138      2.37773038187842     -0.24369395450085
  C   7.12374668803422      2.49949700965842     -0.19424776308338
  C   7.80747127817703      3.76225802301869     -0.29828118264971
  N   9.10317394006177      3.61114802750649     -0.24045011418218
  C   9.36856540836259      2.26217014199636     -0.09605321706619
  C   8.22675984744917      1.51126688313056     -0.05341592636923
  C   8.06348489122878      0.12963541403834      0.09470396295454
  C   6.88099457698654     -0.55014357396216      0.14520109912806
  C   5.56013684716600     -0.04864768517465      0.04432464835604
  O   4.67396435301711     -1.05622056982167      0.16429313223400
  C   3.30153157851216     -0.94496644067470      0.11168664755807
  O   2.65794443212465     -1.93150465871878      0.27083549697863
  H   7.32762452084647      4.72405255021601     -0.41117089036113
  H   10.38868067005048      1.91390689787601     -0.03179076742669
  H   8.96813386282741     -0.46318469832641      0.18292487353548
  H   6.91590501652633     -1.62380180973769      0.27645640553214
