22
Coordinates from ORCA-job 20591optt
  Br  0.97230040314142     -0.06441260705774      0.27766757732220
  C   2.84380859002604      0.00873019919351      0.19728605488943
  C   3.52069015276907      1.16449192841577     -0.04534617314178
  Br  2.68906322289863      2.80845386017211     -0.32248758000795
  C   4.96604406590714      1.14360641118678     -0.06101652077400
  N   5.66413386052612      2.23222669722308     -0.15156037684106
  C   7.00939074539242      2.14302664579790     -0.01686118941149
  C   7.81068721885223      1.06433890520776      0.06385639109515
  C   9.25049550712451      1.46112035833119      0.23011246892792
  O   9.18957588857525      2.87921829285383      0.30477501355484
  C   7.87528986242879      3.36608400748276      0.09521711171782
  S   7.20290465662394     -0.48846778627132     -0.22137205361726
  O   7.27738319988825     -0.85493458534535     -1.59590224795003
  O   7.57753115984245     -1.44800120472058      0.76553165391189
  N   5.52005203727105     -0.12748650142899      0.08962233118976
  C   4.73556758307789     -1.22083404127482      0.33871581732266
  N   3.45684716327019     -1.18638354657983      0.41038688656794
  H   9.86850434686510      1.15404066160255     -0.61886014371837
  H   9.68891940517111      1.06214220666813      1.14804008565100
  H   7.82034006137448      3.95741657608499     -0.82412779058554
  H   7.56778223856276      3.99521960377429      0.93396549586190
  H   5.26568863041106     -2.15459608131606      0.48335718803496
