19
Coordinates from ORCA-job 20595optt
  Br  1.13093061981451     -0.25344583606148     -0.02139091992970
  C   2.98112209002448     -0.03302486810901     -0.01894415248135
  C   3.57743237426025      1.17704872893219     -0.01802223268186
  Br  2.63318954322619      2.79492245302472     -0.01881925992729
  C   5.01991069680746      1.25928590122424     -0.01653803950545
  N   5.65411010665249      2.40994316154807     -0.01563037209650
  C   6.97729587118381      2.33497797088267     -0.01476342865387
  C   7.64918570918386      1.15508351326470     -0.01504212713764
  O   8.96572264433796      1.31177077201945     -0.01459024720805
  C   9.20436532462526      2.71435752003002     -0.01391802113885
  N   10.32829683563216      3.25236132791876     -0.01339926957478
  N   7.96697319754599      3.31369101908919     -0.01406527092373
  O   7.08251157214250     -0.01710328507459     -0.01587509054001
  C   5.69319528535853     -0.03546991227475     -0.01652201177298
  N   5.17120179064451     -1.18831059472512     -0.01711161650308
  C   3.77892907761311     -1.30388702452621     -0.01797894236795
  O   3.24545938376368     -2.38031233439147     -0.01797926773446
  H   11.08910376002878      2.58233819597306     -0.01346621377536
  H   7.84506411715442      4.31177329125555     -0.01294351604708
