23
Coordinates from ORCA-job 20603optt
  Br  3.62064161998834      1.20719072782583      0.07156763894809
  C   3.78919042267670     -0.66661322251816      0.09980486931272
  C   3.32728364729500     -1.39093459035905      1.16474805391899
  Br  2.43174904396113     -0.70980835400695      2.65170745436309
  C   3.45975882476884     -2.81267581534648      1.03997158002182
  N   4.25526233821855     -3.29172944307116      0.02502568381867
  C   4.55493199726746     -2.61697312273909     -1.09960088661805
  C   4.35947030069085     -1.26572167733454     -1.07219691407230
  C   5.00650625066975     -3.40660122288866     -2.25008178275716
  N   5.48685257178732     -4.58020543365205     -2.27080049131808
  C   5.95037058410887     -5.47809624876512     -1.32176795357852
  C   5.56540029393421     -5.95262001163525     -0.10377396802079
  N   4.47643293525124     -5.65218512422482      0.69182900498640
  C   3.60391967100966     -4.59814841900513      0.37115435465452
  N   2.95288634033333     -3.92160062727422      1.50890578180767
  C   6.38659506491615     -6.98996369582974      0.45420115365047
  C   7.06158135264478     -7.84103048158038      0.95994125818042
  H   4.63102586830895     -0.64633527426261     -1.91305979100581
  H   4.86657724453647     -2.91732606947772     -3.21365362148102
  H   6.80017850196176     -6.02175841838783     -1.71662999302748
  H   4.59549300775057     -5.81406495449110      1.68122213235013
  H   2.91033618641152     -4.85665447453492     -0.43144506833904
  H   7.66455593150847     -8.60114404644079      1.39693150420523
