23
Coordinates from ORCA-job 20606optt
  Br  4.00979394406352      2.16620111880084      2.97252407630402
  C   3.97972998761577      0.87431869461507      1.60312636305110
  C   3.19717706041501      1.04635971405992      0.46229861594700
  Br  2.05968781059552      2.51300388858241      0.19783238813778
  C   3.25390556166295      0.02932902648731     -0.49702898919360
  N   4.02465683719945     -1.02159427933400     -0.35219063621416
  C   4.70006969205525     -1.22427722558870      0.76240822713968
  C   4.74357696743450     -0.27332273037480      1.77511900910981
  N   5.37029147401162     -2.44054522788800      0.84188169311284
  C   4.94656865301889     -3.42886449165098      0.14069552416425
  N   3.84202341062447     -3.67563551397267     -0.62830571754818
  C   2.47270017345337     -3.27607030679588     -0.52121740786078
  C   1.74020917211236     -2.30651718139948     -1.07223381491332
  C   1.91433855846275     -1.09310817617818     -1.92189469179311
  N   2.47156451521111      0.01848262527269     -1.65922530330939
  C   5.89302587172648     -4.61065794197210      0.15042752769718
  O   5.64541751415339     -5.64140196235796     -0.40835481874285
  H   5.33548813784629     -0.43014721281111      2.66397587196093
  H   3.89258590332016     -4.64621340790010     -0.93194307529869
  H   1.89768810039505     -4.01910729777265      0.02615651495010
  H   0.67680437099298     -2.45534168492071     -0.89012832494363
  H   1.33052867602536     -1.12879273598921     -2.84206442592101
  H   6.82016760760363     -4.42809769091165      0.71214139416401
