21
Coordinates from ORCA-job 20602optt
  Br  1.75839832847331      1.11964746361190      1.19224423078335
  C   2.95940392241668      0.57053290175113     -0.14935370215760
  C   3.51934643629254      1.48937376090953     -1.03618259638211
  Br  3.00019190387099      3.28995464535592     -1.07206674499043
  C   4.61199869300824      1.03285907865006     -1.78365514662577
  N   4.73408219579959     -0.26250991243597     -2.04572938093046
  C   4.13184603113523     -1.14681222325991     -1.27873831479120
  C   3.51136307768177     -0.71865977629445     -0.09016335973961
  C   4.10637781400613     -1.06459077914051      1.21777189312162
  C   5.43196882425420     -1.16188058461082      1.11645888044985
  O   6.30440109549760     -0.57376707088477      2.01560769730207
  C   6.87649797260143      0.56454922162150      1.53757558525940
  O   7.69180563726887      1.16621200336695      2.14939158608500
  O   6.36992031074202      0.88251560219461      0.31447340618725
  C   6.88234378835921      1.89641690441452     -0.49932866752430
  N   7.85122021596477      2.64285887996403     -0.28807503950665
  S   6.03461700421328      2.04577087287245     -2.08307756111186
  H   4.32715696696507     -2.19532264249915     -1.47282909307372
  H   3.64946453543216     -0.69673227787113      2.12589283980062
  H   5.92461159393065     -1.46622526305903      0.20572164758659
  H   8.30898365208621      2.47880919534316      0.60606184025794
