19
Coordinates from ORCA-job 20607optt
  Br  4.87676106180016      0.16703520066036      2.67138657503839
  C   5.05643758829927      0.38290776549633      0.82361786375447
  C   4.49998400877662      1.49373260933935      0.18059738712627
  Br  3.42903747553981      2.77763629326703      1.02378751020402
  C   5.06393311007930      1.74115681810615     -1.07809186995820
  N   5.38161066740176      0.70355145744480     -1.84847942929768
  C   5.82103436224761     -0.39658284967572     -1.28830411710441
  C   5.96659386471003     -0.43218435370924      0.11851464981841
  N   7.20160379259817     -0.58001094870670      0.77014240719368
  C   8.27029808781841     -0.39194881116297      0.13016320321706
  S   9.59375382079755      0.57188940856469      0.94157208170789
  C   8.59024041798356      2.00702871576904      0.60185018898186
  N   7.62097686136876      2.27359637248184      1.38396138379285
  O   6.65137473460402      3.03723994337960      0.72351842261139
  C   6.78955398834658      3.02293200179308     -0.62750930505093
  S   8.50801111235335      2.73506371055718     -1.00249652280121
  N   5.84633236652841      2.86071804972460     -1.45957393372778
  H   6.18422202371020     -1.18582526861537     -1.93722604525121
  H   8.37724065503634     -0.40593611471406     -0.95543045025486
