29
Coordinates from ORCA-job 20619optt
  Br  2.65994387405684      0.37851957208658      3.38940112411961
  C   3.55254249918212     -0.02252731119911      1.77674179462441
  C   3.33691859072742      0.71398647219796      0.61213167800476
  Br  2.05194997782984      2.08140797542012      0.52094846916743
  C   4.09682619191824      0.35112852715257     -0.50484204874844
  N   5.00824148339469     -0.61738891699713     -0.41206695263394
  C   5.03682424990471     -1.33970196452400      0.69788433123899
  C   5.73370214979508     -2.66214048466775      0.62834426586679
  C   4.79247892328720     -3.69619673824559     -0.05314946715327
  C   4.46642311122612     -3.39157934625774     -1.53312916122929
  N   3.32806706350386     -2.49435131555606     -1.70891802366323
  C   3.46807124118504     -1.57238198806980     -2.84048259285999
  C   2.87620019391466     -0.17910171474118     -2.60238900971849
  C   3.82127254014026      0.82515765982065     -1.89825553266600
  C   5.43109398285098     -5.01125031157228      0.04217190466097
  N   5.95692258116444     -6.02725070990205      0.10843084580253
  N   4.34894360952935     -1.06737559885242      1.80512023594466
  H   5.97536630059248     -3.00394979933430      1.63246767572945
  H   6.64552602888808     -2.57894884053396      0.03791244810187
  H   3.85749667225430     -3.75408186376395      0.51406558713335
  H   4.26432345253847     -4.33514358879100     -2.04411757223748
  H   5.37398440508615     -2.96932393148429     -1.98333898696107
  H   3.13062577288788     -1.98657847358252     -0.86103086606903
  H   2.98030252163231     -2.01606776900369     -3.71196617805902
  H   4.52785767250762     -1.44881472120312     -3.09863477339923
  H   1.93905096731090     -0.26263941327383     -2.04300731843092
  H   2.61812328228285      0.25108453022874     -3.57125065315130
  H   3.37136115081290      1.81502589164734     -1.90557977413015
  H   4.76755950959516      0.86148417300185     -2.43846144928394
