21
Coordinates from ORCA-job 20610optt
  Br  1.02162110966753     -0.36779536049970     -0.34555363078576
  C   2.89240231784505     -0.33446859899573     -0.16172688267750
  C   3.60919447771172     -1.46547643599712      0.09473850072824
  Br  2.89102369112515     -3.17263127116546      0.29330099190751
  C   5.02491372664796     -1.32584237469755      0.21916737914941
  N   5.99152096674633     -2.17478396703947      0.46139783830499
  C   7.14382195856703     -1.43695471854851      0.46132871677282
  C   6.89330386708455     -0.11378002226892      0.21273307539567
  N   7.69783397343590      0.99585249664698      0.13203430503264
  C   7.22293308760177      2.13738290061126     -0.12716960751165
  C   8.13089037532123      3.34434570575024     -0.15186997850430
  C   7.99142473090930      4.13895441026522     -1.36939119549754
  C   7.85767611241515      4.77940004541627     -2.37066737699385
  S   5.50982217538960      2.57579880666123     -0.45698802225825
  C   4.72416961529778      1.01899074469644     -0.21202323826311
  N   3.45009562887285      0.90448526084052     -0.31424460208991
  N   5.51926175941207     -0.04317828244977      0.05535674549821
  H   8.10690760958200     -1.88577544808608      0.63984866185252
  H   9.15074017913279      2.97676685126596     -0.04154885375074
  H   7.90032315976023      3.97003659041248      0.71624345000976
  H   7.74311947747389      5.34767266718172     -3.26296627631915
