22
Coordinates from ORCA-job 20615optt
  Br  3.52873416415708     -0.00552105978400     -2.32992396999016
  C   4.36314022763710      0.64807409312812     -0.78680512261921
  C   3.82105624112456      1.60097591383535      0.00392934529685
  Br  2.20121737786120      2.47719876106265     -0.27737474161862
  C   4.77375363491452      2.10002883834793      1.01478350956365
  N   5.26605856662273      3.26355035052198      1.01055382169554
  C   6.66685638522695      3.30017079734931      1.14879551028096
  C   7.27852635215691      3.72316036896960      0.02289814159413
  C   8.03336966899029      2.63387072848345     -0.63699149908667
  N   7.27731892508083      1.92934285545074     -1.41668542238470
  C   7.70385690097856      0.63291787390857     -1.25591870801371
  N   6.65779860768953     -0.32282732380142     -1.42040127968987
  C   5.66396223895329      0.06332765296078     -0.43322596602575
  C   6.03107615466128      0.19167504398794      0.84812064041359
  O   5.38706004665442      1.03996234141404      1.68643206603417
  C   8.85001405043920      0.64351942470145     -0.52854038095209
  O   9.06445659972842      1.94964625451451     -0.12435093259404
  H   7.15648160149311      2.64387435269297      1.86123731798438
  H   6.67480516732271      4.28740283838617     -0.67570854783270
  H   6.94947601651941     -1.28892813008491     -1.37050379327438
  H   6.91268597786159     -0.25709002889280      1.28530017902858
  H   9.55029509392621     -0.09333194715244     -0.18162016780996
