21
Coordinates from ORCA-job 20625optt
  Br  1.03017406417699      0.53860779901634      1.11650931523838
  C   2.82745625324846      0.31078092515989      0.61732534137415
  C   3.72758569282445      1.30828525490029      0.63234284987873
  Br  3.22520950294590      3.05628800074373      1.10675308154203
  C   5.16079207582293      1.11281781988046      0.33505738886141
  N   5.88495731638664      2.16452723315541      0.24562953337726
  C   7.24543904470356      2.27082412978826      0.11006301146965
  C   8.19306460018359      1.45231483401912      0.62877867527040
  C   7.95595409031589      0.13624953101540      1.21818396550343
  O   8.72064052283221     -0.36783684924542      2.01143161903483
  C   6.85325077062719     -0.67246947320858      0.63776185171804
  C   5.65185838171737     -0.26537907575551      0.19708043288851
  C   4.76480448600665     -1.30163822061852     -0.40164052194084
  N   5.11341624691307     -2.21641446535518     -1.19448878975924
  S   3.07057900082186     -1.33389859261019      0.10168220161624
  C   7.66039985386919      3.49546309075635     -0.51968121719839
  C   8.01235462117570      4.50172886015971     -1.06483563298221
  H   9.22133702739538      1.79014176889959      0.64552941835961
  H   7.08115650379866     -1.73405258874008      0.60881769060298
  H   6.10629682681167     -2.15846025083047     -1.42438835721610
  H   8.32027311742256      5.39912026886937     -1.54691185763889
