22
Coordinates from ORCA-job 20628optt
  Br  4.91200880858104     -2.10989144953595     -1.33403042740466
  C   6.24357344914080     -0.86836600802675     -0.88684154001597
  C   6.52187965303766     -0.53696657599568      0.39344139584140
  Br  5.73671300819243     -1.27118232976089      1.91497355559637
  C   7.65667756706693      0.37252794490370      0.57011913789238
  N   8.53066139912424      0.38676470998278      1.47684053533004
  C   9.65666780212970      1.17674650260084      1.17167117059207
  C   10.34745438844085      0.96471550777520      0.05276465300719
  C   11.13613734978534      2.05505226426645     -0.54879692900160
  O   12.07931932712556      2.61700002252971     -0.06407745768162
  N   10.63044667271999      2.50345236176434     -1.79650078615606
  C   9.31273613660892      2.46435025189350     -2.25690128635881
  N   8.70629853303435      3.50490804904685     -2.59207191561836
  O   8.80969633849323      1.17646347330522     -2.47787010829088
  C   7.82219249568198      0.69447155392168     -1.70319122232707
  O   7.75199840789614      1.26954108906864     -0.49151957547084
  C   7.03628709942769     -0.34861780229355     -1.99131470098515
  H   9.87162609972062      2.00350661339726      1.83965271417411
  H   10.08385004403470      0.13284081261770     -0.58943441100006
  H   11.06946409903431      3.38207543584756     -2.04823831629610
  H   7.81678465062722      3.30050531565986     -3.04131671738097
  H   7.05152667009621     -0.83689774296848     -2.95135776844540
