22
Coordinates from ORCA-job 20621optt
  Br  1.44815348604515     -1.54939067729178     -1.01437598519989
  C   2.88392428273596     -0.44285326198011     -0.52524804414909
  C   2.79316610556204      0.90474576818930     -0.46385813738054
  Br  1.20221893043114      1.81925448661700     -0.80284692196588
  C   3.94742861111961      1.73481971060023     -0.08688863973039
  N   3.76709394532357      2.97579986488726      0.12724729702656
  C   4.91270064150523      3.69930091472515      0.38886062621821
  C   5.86290413251704      3.84231098634921     -0.53214942106426
  C   7.23235891124052      3.71185268664285     -0.00109714105512
  N   8.15082984316029      4.55159539698266      0.23783912066436
  C   7.45130537737834      2.29184639164355      0.31086983294215
  C   6.58926021420894      1.24554850516949      0.31675675678356
  N   7.21111089393158      0.00595838779023      0.56204939974502
  C   6.36371770898498     -0.92758546601438      0.39106755121201
  C   5.05958076174072     -0.40041497807235      0.03674016221988
  N   4.02676188359344     -1.11358571643074     -0.22320052679869
  N   5.17598766137260      0.98273265952959      0.04229350865729
  H   5.06207814879095      4.02391626322354      1.41607746701419
  H   5.68128837629093      3.48041191848892     -1.53951040753119
  H   7.85338381333599      5.48715854137852     -0.03970470662011
  H   8.46691892773416      1.99784517728874      0.54609890229701
  H   6.58182734299678     -1.98126755971690      0.49297930671494
