25
Coordinates from ORCA-job 20624optt
  Br  1.97505873309623     -3.03415153004674      1.23584835074002
  C   3.32474482049679     -4.27189611463716      0.79587599863131
  C   3.09644560610722     -5.63922500178975      0.88865751117772
  Br  1.45675942777063     -6.40778970445545      1.36953634739609
  C   4.18034859604705     -6.46062743272148      0.54837443047920
  N   5.35719567258474     -5.97922009109942      0.28087209513270
  C   5.55715330311437     -4.68232629744913      0.06464634719826
  C   6.87470501326881     -4.39073762070284     -0.60175438776789
  C   6.95929493399936     -5.06222192064923     -2.00817653281449
  N   6.77471474812259     -6.49741078681092     -1.88984413560604
  C   5.59800196013261     -6.88316162815684     -2.04730794391250
  O   5.11409543847779     -8.11140589565940     -1.67767334493494
  C   5.03376898266418     -8.50008291504303     -0.32342957869337
  O   4.01359334072625     -7.79226883975707      0.39733208329217
  C   6.31318017389186     -8.55744754131693      0.39192597514911
  C   7.31684623328868     -8.76539211106626      1.00606597870507
  C   4.54470434940914     -3.77446937831266      0.32624490072196
  H   7.67646474203399     -4.79920755735345      0.01477495161998
  H   7.03112474291330     -3.31839914044030     -0.71977793572968
  H   6.20795436102838     -4.60032614562362     -2.66284081397157
  H   7.94681641783810     -4.85627354563440     -2.41898043079735
  H   4.79954620190304     -6.27120032817693     -2.48331097856666
  H   4.62587586999299     -9.50642595621750     -0.37199341390175
  H   8.22196406864087     -8.91726163867834      1.54359813660829
  H   4.67564226245092     -2.71307087820101      0.17233638984435
