22
Coordinates from ORCA-job 20637optt
  Br  1.17250123106741      0.03434819612772      0.31513511953126
  C   3.03263982601185     -0.10481666030765      0.16364708027369
  C   3.70696187359684     -1.28330900941483      0.29804362636832
  Br  2.91374383169581     -2.93046583952959      0.63090227723869
  C   5.11804496902282     -1.22418710415770      0.17340851694132
  N   6.07103276520410     -2.13276472512966      0.25352797941336
  C   7.18862147665557     -1.40847640810705      0.04026601609572
  C   8.56633466892834     -1.99621728898557      0.03762572598964
  O   8.97506098214331     -2.43300604854973      1.32413039001293
  C   9.25560179253065     -1.50035760237087      2.24804487289820
  N   9.21858485864624     -0.24229321874441      2.18972838374021
  C   9.68987385553267     -2.11057091461881      3.56239459239688
  O   9.80468683916834     -3.28353223497915      3.74848939212908
  N   7.00236626133645     -0.11237106283916     -0.17329676933406
  N   5.67916270690477      0.00493053565044     -0.08678236675950
  N   5.04875825707785      1.15914892034026     -0.23307276982951
  C   3.75859357974135      1.09274320676901     -0.10662033557469
  H   9.27015486788762     -1.26309626923418     -0.36240687571424
  H   8.58028042988062     -2.88998944035672     -0.58129408380953
  H   8.90512990093875      0.14606699272053      1.30258167018906
  H   9.88930587844508     -1.34707050560020      4.33180627742119
  H   3.22655914758345      2.02728648131732     -0.21925871961802
