21
Coordinates from ORCA-job 20638optt
  Br  2.37445023533257     -1.11933301372417      1.00031721006137
  C   3.89424917698542     -0.08245943376338      0.62793396288741
  C   3.81404248005413      1.10870172533298     -0.01375349093267
  Br  2.21522675702203      1.88404217795893     -0.57871141578315
  C   5.02564138062078      1.87463367483895     -0.27125028435557
  N   5.01398116571260      3.05138822591006     -0.76473359097941
  C   6.24799111411138      3.68515759261992     -0.85984088807141
  C   6.93643147370827      4.02944147711737      0.22319545033464
  O   8.30826834513299      4.24600656922129      0.13903851010645
  C   9.06325526233280      3.14403853015118      0.40358323046990
  N   10.29680098986773      3.09359843194176      0.51015060058151
  O   8.28906539391158      2.01323454216927      0.64439391561320
  C   7.50746538266745      1.58723546169580     -0.37785252832597
  O   7.85424991639909      1.46021477924997     -1.50105054674559
  N   6.20489497695848      1.16195099859907      0.09511853829413
  C   6.14623628669064     -0.01977380298330      0.77364399146565
  N   5.06502072990096     -0.63865700574804      1.06464236644651
  H   6.69057695142869      3.79251954166523     -1.84594420822209
  H   6.53469570744108      3.97374556282908      1.22739997878395
  H   10.71162810931921      4.01462234874844      0.39223689026561
  H   7.10382816440206     -0.43830838383046      1.06648230810554
