23
Coordinates from ORCA-job 20631optt
  Br  1.29793573449816     -0.09164373315328      0.35338290598034
  C   3.15552659444675      0.06757634953730      0.17278569517030
  C   3.81966311810153      1.25341638010296      0.27016935456790
  Br  3.00605740760226      2.89627979130193      0.58397333662216
  C   5.23077211691766      1.22128967758664      0.12351395358368
  N   6.14037565238555      2.16877442998454      0.16859664309607
  C   7.32832743408431      1.53622969338534     -0.03498997418303
  C   8.60558526670707      2.31247208851633     -0.03790970344152
  N   8.92698172738572      2.84386706005020      1.27642431336073
  C   10.01159802359870      2.56628442528359      2.04909606221699
  N   9.95931385332548      3.22580082729886      3.16864790451699
  N   8.80776144298859      3.96486105357570      3.15086290585760
  C   8.20573754940724      3.72522793478797      2.02157212133264
  C   7.15907075889543      0.18619041967980     -0.21311832817316
  N   5.81342874836318     -0.01537852419894     -0.11278485013691
  N   5.17871174285041     -1.18483051648821     -0.22101831620256
  C   3.89269637841100     -1.12917987171144     -0.07966055798784
  H   8.52227849758683      3.14039956324790     -0.74337935112558
  H   9.43523194651716      1.68021123147957     -0.34995001282786
  H   10.79464111943152      1.89046434247680      1.74492924869106
  H   7.26408621635016      4.13294886066961      1.69269751325724
  H   7.83712220851576     -0.62896842063540     -0.39250733377255
  H   3.36809646162939     -2.07129306277780     -0.16333353040270
