23
Coordinates from ORCA-job 20636optt
  Br  3.35056779631922      0.02497277063880      1.98015936217788
  C   4.34812136770881      0.42824669712372      0.44311470132358
  C   3.90962310666143      1.14642596567922     -0.60006021816357
  Br  2.24204861696121      1.95151743940535     -0.75129879689443
  C   5.02034326707258      1.45770069925837     -1.55765469016015
  N   5.48054575453921      2.63395041075454     -1.46904769753052
  C   6.86328779569652      2.85647661654271     -1.58163181230398
  C   7.33705064570847      3.43125241265952     -0.47732036413306
  O   8.65615972234065      3.49347064384843     -0.11093096056887
  C   8.95988366951241      3.11025500770250      1.15370333498918
  C   8.35729701731075      2.13530857649954      1.86339493036203
  N   7.40711908844256      1.38512457325089      1.21876030181487
  C   6.66383631388484      0.43289430139707      1.58961878691656
  C   5.78665824963598      0.04954358226236      0.42426219278901
  N   6.40275313648661     -0.20651675471217     -0.66310606223558
  C   5.79883171669536      0.21103352960989     -1.86170195309237
  N   5.95779751312400     -0.27196848541136     -3.01372965501128
  H   7.47838818814482      2.34585851334326     -2.31411511564139
  H   6.64984500332201      3.82798539066623      0.26113013789071
  H   9.79875958638190      3.66468385923669      1.55275958328106
  H   8.68028461104183      1.94210363754866      2.88348914176297
  H   6.58051348810533      0.00408225365357      2.58947422474576
  H   6.54728434490344     -1.10540164095781     -2.96126937231840
