22
Coordinates from ORCA-job 20630optt
  Br  1.27535738860683     -0.25383270639592      0.24372640013474
  C   3.14282333653830     -0.05728618006684      0.10167516121105
  C   3.73071325176387      1.15911945038794     -0.09620100297022
  Br  2.81970744497414      2.77081764249457     -0.30371968938488
  C   5.14858905319505      1.19032552831860     -0.11973307639852
  N   5.97707830292322      2.20179621059009     -0.20705675411344
  C   7.21906766008855      1.65700693841209     -0.10198747688090
  C   7.17237180199109      0.29871146960165      0.04088632917147
  N   5.82998681138622     -0.02195253037319      0.02129096063670
  C   5.13789638072165     -1.20524707908436      0.12441780819313
  N   3.84182361904535     -1.20496187590695      0.19429318786100
  C   5.82241540660660     -2.48386475897185      0.15298984044242
  C   7.03548282473253     -2.83245954603639     -0.31725043336370
  N   7.30235646102680     -4.17112738023358     -0.21805602245826
  C   6.29751948413425     -4.95780792964969      0.34059222146013
  N   6.27660990350746     -6.20100562670884      0.56143808058285
  S   4.93937581181019     -3.89229204375761      0.72336155753165
  H   8.10316965320207      2.27385083746795     -0.12080140405752
  H   7.94448553282703     -0.42468965493202      0.21201656619926
  H   7.75891097235936     -2.19438650964535     -0.79759457459456
  H   8.16994645867210     -4.58177895680318     -0.52255485714962
  H   7.13431243988729     -6.66793529870712      0.27726717794722
