21
Coordinates from ORCA-job 20644optt
  Br  1.09478430628489      0.43160693495446      0.24940241529995
  C   2.94098518157670      0.16305688812219      0.18939151410924
  C   3.52572626260152     -1.05111001951528      0.21452845086716
  Br  2.60426748607505     -2.66483651945348      0.32988209669476
  C   4.96594318539134     -1.08682652508612      0.14957034118986
  N   5.74040955908144     -2.10853744535966      0.12974543881986
  C   7.07061370713098     -1.62538140572313      0.05863131653599
  N   8.13655426986555     -2.30307898812212      0.01329101869760
  C   7.00805361443905     -0.15105405412430      0.04782413967988
  C   8.02010188013036      0.71215345556974      0.01160205277931
  N   7.97288419113081      2.07820036172666      0.01278535325045
  C   6.88446741774013      2.96909306765200      0.02259828049474
  O   7.14981310230916      4.14272192899565      0.01489075133758
  N   5.56753992202627      2.55046851084122      0.03929290254161
  C   5.05362632113004      1.37747614164839      0.08324394477350
  N   3.67637016028037      1.31842821635501      0.11732595783668
  N   5.63042415299643      0.14850378369184      0.10112314691365
  H   7.91928168826135     -3.29751630759424      0.03610957550447
  H   9.01052897153812      0.27557349195447     -0.02075703014028
  H   8.84927204164024      2.57603582855427     -0.00226324399133
  H   3.21535257837013      2.21702265491243      0.10478157680531
