20
Coordinates from ORCA-job 20642optt
  Br  1.11250630078790      0.09430491551943     -0.05381523758909
  C   2.97371668692986     -0.07837571147722      0.03927060339037
  C   3.65219323254412     -1.26419363321508     -0.06119016790343
  Br  2.78829435067496     -2.90165894833689     -0.29943038479309
  C   5.05959474455945     -1.20993481227839      0.01602311934685
  N   5.97313864044825     -2.16557737868391     -0.05468054927238
  C   7.13196428792115     -1.46292853071719      0.08175482546305
  N   7.06038032851161     -0.14823023315437      0.23528413596686
  C   5.72164187010796      0.06008508203996      0.19759836501280
  C   4.98518034913248      1.20749097554447      0.29657378094345
  N   3.64283860904220      1.09820929477992      0.21482188597997
  C   8.41650673001751     -2.15614576245536      0.05635955427914
  N   9.57519133503780     -1.62286558270229      0.17123454610600
  N   10.42273632124606     -2.68517895766597      0.08260058564581
  C   9.77191692072302     -3.87252759609555     -0.08669742219709
  O   10.18358693547264     -4.98573238474981     -0.19917182407810
  O   8.44383031537756     -3.50207852770760     -0.10304306046605
  H   5.39438926252566      2.19751113625328      0.43447160166531
  H   3.07992591925802      1.93354458019970      0.28747988927377
  H   11.41746685968173     -2.56171792509712      0.14355575322584
