22
Coordinates from ORCA-job 20648optt
  Br  2.82715616240521     -0.10552117684673      2.01125120898590
  C   4.33380273895621      0.54938699093960      1.13424721977970
  C   4.33008540624246      1.20416685709190     -0.04146528386666
  Br  2.75705136208031      1.54517641815697     -0.98608140544684
  C   5.58086552551018      1.77894260294125     -0.53627695034706
  N   5.57790934727010      2.71435672658345     -1.41761908243623
  C   6.78403513087004      3.38306413406221     -1.52389800502648
  N   7.22156685299599      4.03214913579215     -0.50547225350402
  C   8.58663117062010      3.84682034597929     -0.36576313073182
  C   9.00171745070671      3.41125283062845      0.84093358330972
  C   9.58143423316230      2.04874741032294      0.91412949455794
  O   10.09492228642299      1.51353593577822      1.85750544906646
  N   9.26551342707353      1.32154443043639     -0.27741743445990
  C   8.08854407393724      1.04399752668709     -0.63871984532033
  C   6.78644777608523      1.17536507836479      0.09384738029324
  C   6.64724384219553      0.51383217703321      1.24846059040124
  O   5.45476720900721      0.29135433381943      1.83666545428563
  H   7.37403101130598      3.21040851792232     -2.43120779355992
  H   9.17924553616037      3.64937365071188     -1.25953484531982
  H   8.40341461689268      3.65801437817980      1.71103335931237
  H   7.96821055024685      0.60383449695445     -1.63270841694835
  H   7.46240428985268      0.06219719846089      1.79809070697524
