21
Coordinates from ORCA-job 20653optt
  Br  1.68479042730333     -0.55985174596183      0.67103404648108
  C   3.42027202337169     -0.02939026011581      0.27026891321960
  C   3.81351899388670      1.24460327373051      0.14875719102056
  Br  2.63244652748195      2.68100641094757      0.33305186923453
  C   5.22052170603914      1.58974043181311     -0.18396042395200
  N   5.44203082316680      2.74544899011876     -0.65449974270080
  C   6.70409320034426      3.25051473653611     -0.95606031667467
  N   7.24389140655594      3.38265506897706     -2.08376429567571
  C   7.35563862315283      3.69514193122363      0.32033588219817
  N   8.14123393204536      2.94113298737485      0.94959330568908
  C   8.53471972429178      1.70752302846150      0.39541483451234
  O   9.68844629187210      1.48987277483366      0.14708818278925
  C   7.55141341240515      0.59918467824148      0.26265605143452
  C   6.22888825697964      0.50746175202299      0.02509526798296
  N   5.69404757821520     -0.77451334166452     -0.08572819952859
  C   4.38178994277817     -1.15167660670983      0.04983425730865
  O   4.05128056587595     -2.30703507406323      0.00251716269698
  H   6.65539530910891      3.00117561161649     -2.82583711209859
  H   7.05642401574611      4.64868098238215      0.75070413266098
  H   8.07765314576925     -0.34861861977884      0.32611956293992
  H   6.33750409360966     -1.55405700998586     -0.11662056953828
