22
Coordinates from ORCA-job 20655optt
  Br  1.11024070676833     -0.00402949906492     -0.11455787669389
  C   2.97355790389776      0.10833424930668     -0.08191713631126
  C   3.66479405964375      1.26758502480190     -0.06388849126884
  Br  2.84280792573566      2.94574116072910     -0.06117516637246
  C   5.11132363865090      1.20278660242684     -0.05199163173204
  N   5.78707303378220      2.30813563637534     -0.04432675818368
  C   7.14436140763310      2.19855786257882     -0.04054892563559
  N   7.77311483245875      3.40028102770280     -0.03759750989399
  C   9.15363555735073      3.67302083685314     -0.03826241354713
  N   10.12233829244190      2.87604264681051     -0.04171485641857
  N   7.83586322749108      1.09389736834775     -0.04039099015018
  C   7.18426440753810     -0.09479721547978     -0.04380513989686
  O   7.74374098998145     -1.15994258962839     -0.04153414268231
  N   5.72708016502619     -0.04027553354099     -0.05220517646905
  C   4.99304649468451     -1.26677197026146     -0.06038172657648
  N   5.40658235268780     -2.44875656617361     -0.05460778243029
  N   3.60794402227939     -1.08057234887936     -0.07928766990260
  H   7.14406576491451      4.18868921577763     -0.03703380790574
  H   9.32923851603771      4.74791345087069     -0.03567443807946
  H   9.81854711866307      1.90342616824872     -0.04379401594979
  H   6.41944290096488     -2.50099117770896     -0.04270493823014
  H   3.08693668136820     -1.94527435009245     -0.09059940566963
