23
Coordinates from ORCA-job 20659optt
  Br  1.54941365982641      0.35012942386428      0.84626571934226
  C   3.30053804296581     -0.08427165344479      0.35332365359212
  C   4.19709048665949     -0.63275183335078      1.23060679088365
  Br  3.85026344491562     -1.06405032307913      3.00242212238125
  C   5.48018661448087     -0.87096841869953      0.70084244221658
  N   6.60700540583988     -1.35047249140791      1.17481647338722
  C   7.43777750525385     -1.28721467266686      0.10125241724666
  N   6.90202661802819     -0.79964254429319     -1.00818845777585
  N   5.65141809352331     -0.53343035780671     -0.62586529983704
  N   4.74360548969735     -0.01603906932179     -1.44193168884900
  N   3.59709211397219      0.20107450948767     -0.94609064120691
  C   8.86359628849726     -1.70224341956876      0.16145701072100
  C   9.69923147856949     -0.80212579854251      1.08563487239152
  O   10.80764415689125     -1.60527605153574      1.47896790741135
  C   10.51070133239447     -2.93086880975778      1.34590521104014
  N   11.28989056084247     -3.86934445310148      1.63237537702492
  C   9.11336148329086     -3.07145716100612      0.79715700705536
  H   9.27170020643150     -1.66807450161165     -0.84854967393455
  H   9.12206201523065     -0.51733636653464      1.96891161787624
  H   10.07919946225276      0.08860915192166      0.59050415162598
  H   12.17132525191190     -3.51433462500176      2.00050859307267
  H   8.42142638927553     -3.23078376848677      1.62749818664666
  H   9.04144389924876     -3.91112676605568      0.11217620768777
