20
Coordinates from ORCA-job 20667optt
  Br  1.69254819828109     -0.54617402580162      1.21156065945239
  C   3.40288920603384      0.00560700305598      0.72146006417261
  C   3.75777981080287      1.29468966578727      0.62881506670280
  Br  2.60897852822262      2.72565480785930      0.96633380319328
  C   5.10297478444504      1.62720950033778      0.11816709284644
  N   5.30691766388380      2.73757585649000     -0.44862074025020
  C   6.52261154461803      3.03439347927127     -1.07278641620123
  N   6.62545973266503      3.03970942688877     -2.32307173399565
  N   7.56103290045890      3.40477964276178     -0.18540708792544
  C   8.14264965797031      2.48790606860458      0.45881225286272
  S   7.83086137279144      0.74859513531113      0.52775523505302
  C   6.09227693387327      0.51269756866779      0.26968930440016
  N   5.75153487286203     -0.70287559281415      0.36453527827804
  C   4.38820437737385     -1.05982036226884      0.39795043268340
  N   4.01259636534219     -2.25017351032048      0.20899335442857
  C   9.38478516733382      2.87935333537783      1.22629190967576
  O   10.11102386294663      2.07429107598548      1.72527209836304
  H   7.55618053715410      3.33900598550638     -2.60883502189833
  H   4.82633462371813     -2.83636573633611      0.01875455876407
  H   9.56235985922295      3.96694067563582      1.24132988939456
