23
Coordinates from ORCA-job 20663optt
  Br  1.43242269231971     -0.38040086508749     -0.88732614860515
  C   3.19630059725724     -0.03011937019858     -0.38232214005040
  C   3.80183108086584      1.16307617108512     -0.51268893963357
  Br  2.97343760414449      2.67697598321566     -1.22095842052757
  C   5.19861260476813      1.27993413945069     -0.11677379015444
  N   5.84403709603331      2.37520923607175     -0.17423917525954
  C   7.19018337288695      2.33699706048909      0.22999762858893
  N   7.80033663430456      3.30002864764577      0.76924776066322
  N   7.88317159058341      1.13967057870436     -0.05496013936781
  C   7.21923800420508      0.06407998742966      0.00590001972537
  C   7.88709235985918     -1.23583485934898     -0.35786389108766
  C   7.14605826271549     -2.07904885284805     -1.37224829280707
  O   6.16288589373925     -1.73145377103792     -1.96155920660019
  N   5.83347502668482      0.08085508380108      0.27237218000843
  C   5.12838930227958     -1.07190924504756      0.64447664673970
  N   5.54940985707465     -2.03763834057939      1.34460432978164
  N   3.83559548475520     -1.10681173832107      0.16752676792064
  H   7.15711674822044      4.08258640279852      0.87885638093550
  H   8.12486519715491     -1.85856474980503      0.50579065266042
  H   8.85016434479266     -0.96076097234943     -0.79573375936104
  H   7.60387344717317     -3.06631584185277     -1.56281611402345
  H   6.47134818655342     -1.87177891406194      1.72733468454270
  H   3.30815461162842     -1.92977577015348      0.41738296591134
