21
Coordinates from ORCA-job 20674optt
  Br  4.32076392376135      0.92310770180255      0.52830723821827
  C   6.00861429588993      1.41710101454397      1.12715519442627
  C   6.89312962437419      2.16254802244046      0.42891536948502
  Br  6.53835664909477      2.93555701825992     -1.23065378762933
  C   8.22998580987611      2.21613838594276      1.00812459464887
  N   8.47862318932216      1.71520334365076      2.15536330311795
  C   7.37269616805819      1.52093794624282      2.95307394516246
  O   6.27146901947006      0.92806301405530      2.35348618050081
  C   7.36931029527276      1.99109098346669      4.20095695259585
  N   8.52322376608714      2.79164216725702      4.54671241804789
  C   8.53549060382688      3.94776069402763      3.76526730859938
  N   9.34551783698697      4.26783361479537      2.84002417087146
  C   10.40328880289034      3.47342640567811      2.44798295032363
  O   11.38432124071952      3.24391567295494      3.10488832140488
  C   10.41022663905733      2.98987432854514      0.97898184985549
  N   11.45441291015195      2.80012168319175      0.33121922905638
  O   9.20515429125262      2.78237248479697      0.30732411493559
  H   6.56192948928413      1.85787547620126      4.90425030713680
  H   9.39602411576070      2.27582677114378      4.48243913062211
  H   7.69446830694055      4.61032616965705      3.95653007546362
  H   12.25699302192226      3.01427710134573      0.92465113315658
