28
Coordinates from ORCA-job 20678optt
  Br  4.08625538614034     -3.02270372777219     -3.29202766550890
  C   4.40962000080505     -4.18571197091524     -1.84687973928076
  C   4.86475233369003     -5.48528043265836     -2.06014342004624
  Br  5.23350873718861     -6.21156596775656     -3.74804726413251
  C   5.06744764738115     -6.26202669953263     -0.91612507152568
  N   4.82057867144306     -5.82041704606436      0.29799751351067
  C   4.44031920403758     -4.57213546580754      0.48382494251532
  O   4.31901679386333     -4.15549969013932      1.74857384054071
  C   4.65434524719261     -5.12384930969351      2.75499615657989
  C   6.13104176875445     -5.56151573179157      2.74885937512414
  C   6.41839178325684     -7.06060820433281      2.50895837910342
  C   6.87140511991090     -7.50363748491202      1.10178348738168
  C   5.78697496515660     -8.18110540716363      0.22129566630463
  O   5.56267738456016     -7.49848879198975     -1.02794090524447
  C   6.14695168047704     -9.55211844901856     -0.13842135054901
  C   6.46330839835607    -10.67570899293366     -0.39982194879660
  C   4.19841195173935     -3.69565293938911     -0.56709830587292
  H   3.99545257680703     -5.98689873941681      2.64500957645276
  H   4.40387721589900     -4.60891823036401      3.67897825269347
  H   6.55144700125462     -5.29166501317250      3.71889631583015
  H   6.66902356996307     -4.95668042251919      2.01563123042767
  H   5.54404592889098     -7.64720431462839      2.80786641519821
  H   7.20743174028030     -7.35106233392935      3.20348986630931
  H   7.69018762395372     -8.21446300176659      1.20520866404610
  H   7.27116362502912     -6.65356774130797      0.54705534171725
  H   4.84074136240468     -8.19761667351593      0.76654200472846
  H   6.73577632159675    -11.67522099903183     -0.64141826442301
  H   3.87684595996749     -2.68167621847651     -0.38904309308376
