20
Coordinates from ORCA-job 20682optt
  Br  1.42835769641510      0.61036889948854      0.47320339366069
  C   3.28319300763193      0.67034184234910      0.25927619481257
  C   3.96543229716321      1.63272739021096     -0.41178251156669
  Br  3.12077599062167      3.08708543305369     -1.21136901758882
  C   5.40406968089136      1.51805389793291     -0.52961668590092
  N   6.05378510185320      2.34023417546868     -1.27770399288490
  C   7.41968212063066      2.46106437865102     -1.35316127906268
  O   8.02843107031367      2.70007545227382     -2.35979439276998
  C   8.17795815418566      2.36711963670934     -0.02978537946953
  N   8.19659994694485      1.30463353972499      0.66781455289709
  C   7.44845808804830      0.18635537456434      0.25836735219526
  N   7.93003583687835     -0.95351417877678      0.02517134489897
  C   5.96653690490451      0.38764925326650      0.21113072781000
  N   5.26149071022733     -0.48647845731489      0.84996684016049
  N   3.94867663125622     -0.35430813175959      0.84803935803917
  C   8.92783107706580      3.52485465433079      0.35212877311694
  C   9.51168870344548      4.53506809992244      0.62060935625156
  H   8.94385999515591     -0.94034089562188      0.14840388507627
  H   3.44119424836294     -1.06090447496569      1.35950176432207
  H   10.03994273800377      5.42691411049170      0.86259971600245
