23
Coordinates from ORCA-job 20687optt
  Br  6.50066884533461      3.09896691500021      0.42648555301131
  C   6.27685772357538      1.28998023595531      0.82895942292858
  C   5.26107397522459      0.77491094202255      1.51661084337383
  Br  3.87876997781359      1.75484988323944      2.29762299298897
  C   5.34603265454626     -0.69089073023835      1.83438713799947
  N   5.19384359981306     -1.12679955723958      3.02780775690238
  C   5.88872255805142     -0.56868005260929      4.07006230365610
  O   5.54167853947636     -0.37468778595480      5.20252321335213
  C   7.34178915822623     -0.32760841905917      3.55604643033036
  O   7.98012536430118     -1.21738881985277      3.04713071920516
  N   7.72579313218101      0.98357937334853      3.55695116180223
  C   8.77689520135314      1.52328623694985      2.79016864626172
  C   9.09327341494395      1.23119398390196      1.52281222005010
  N   8.51211900679771      0.27628217342681      0.68126534669792
  C   7.28723036793706      0.28473251256676      0.38799690355117
  C   6.59182715595979     -0.90450196461762     -0.24108402406253
  N   5.71698465989555     -1.48718381910342      0.80162615508107
  H   7.21246515834727      1.60609598674923      4.16515399147055
  H   9.38414314484957      2.25630730375294      3.30520273713465
  H   9.98842907796707      1.68838186377367      1.11952440401348
  H   7.32627103698188     -1.65549045581556     -0.51806467512035
  H   6.00814663410912     -0.60993911111823     -1.11426770681732
  H   6.01685961231369     -2.39439669507849      1.13807846618886
