19
Coordinates from ORCA-job 20695optt
  Br  1.07183094452486     -1.41535716057871      0.04783257489405
  C   2.74984176095413     -0.58251448474432      0.00315543615513
  C   2.88654910759646      0.77586388622247      0.00702599339501
  Br  1.44188763516618      1.94788415653897      0.03849101713753
  C   4.21452694147918      1.38739019591529     -0.03304179256698
  N   4.36402794353327      2.64886322031803     -0.10329410965632
  C   5.51012925309671      3.43113717096793     -0.11674790149630
  O   5.44652547265416      4.60775321755464     -0.34847160296858
  N   6.77863756300118      2.92548511488913      0.22666910515800
  N   7.28338622141276      1.67553879679398      0.10992339759786
  C   6.60926352835644      0.63608483216294      0.02537879602114
  O   7.21562098249165     -0.58957601246581     -0.03025600967822
  C   6.27863607606812     -1.59631493093068     -0.06796032808434
  N   6.49817819623417     -2.81950527847186     -0.12168499331426
  C   4.95412134571500     -0.92609622885721     -0.03515008417634
  N   3.79541653712683     -1.45940078246964     -0.03758912586738
  N   5.21289230239742      0.41366789805704     -0.00261189167136
  H   7.49567455679619      3.62879207225985      0.13418041004106
  H   7.49485363139525     -3.03269568316204     -0.13884889091968
