21
Coordinates from ORCA-job 20692optt
  Br  0.98201060188900     -1.27127446841386      0.02985305306653
  C   2.62687742913965     -0.39684273205721      0.04142112655308
  C   2.81066599295652      0.94035478348638      0.03511080529109
  Br  1.35089375869159      2.10770159805283      0.01764483409629
  C   4.16339670134257      1.54379706234719      0.04220733930845
  N   4.27207703662107      2.81974917768953      0.03580200298683
  C   5.44703158292954      3.56566978518455      0.04080756009282
  O   5.37767308187505      4.77028981053818      0.03691740449062
  N   6.76379197032986      3.04544082056884      0.04948763160280
  C   7.42353551986415      1.82151764646818      0.05913726600019
  N   8.68959095407667      1.70254846583503      0.06429289910304
  C   6.60828413058315      0.61051107287763      0.06346338271750
  C   7.07126520072105     -0.67299936569761      0.07433861709858
  N   5.98723828340644     -1.52810434892395      0.07383990262401
  C   4.86400914985598     -0.78102401220281      0.06238007436116
  O   3.63523922655591     -1.30671067788463      0.05702493888612
  C   5.18825942817361      0.54841799623118      0.05586800802539
  H   7.39527248573550      3.83598545759012      0.04869895315266
  H   9.16820589829963      2.60069583349050      0.06046542553852
  H   8.08372862428908     -1.03566827000085      0.08258689337660
  H   6.02095294266394     -2.53405563517923      0.08065188162772
