22
Coordinates from ORCA-job 20693optt
  Br  2.35666666897555      0.97209096546968      0.57827968437809
  C   3.54786977703976     -0.39295674779664      0.11651146616530
  C   3.29120538085747     -1.72710378770178      0.26475569706525
  Br  1.79113649289533     -2.28960717039358      1.22903248301187
  C   4.28060757647206     -2.66951129646929     -0.20253138517798
  N   4.09139078245934     -3.95287521392812     -0.34337299048542
  C   2.75462973065981     -4.69210555984446     -0.51709745969623
  O   1.93040440396530     -4.09291275022057     -1.16064631104219
  N   2.76030282943412     -5.87961318216411      0.04773321516477
  C   3.90312011491248     -6.33298797185752      0.62457810972992
  N   5.11956711965235     -5.95612482107714      0.40617550093926
  C   5.18070602067396     -4.90476853896450     -0.57124985275389
  C   6.51641138341138     -4.22632566425086     -0.55948183023435
  N   6.71807977641063     -2.97445828306362     -0.55467042383587
  C   5.59899652596449     -2.14126900275414     -0.44968305814164
  C   5.77635591977231     -0.80309872845103     -0.55664421009043
  N   4.74129438922380      0.04770210390642     -0.35355231259494
  H   3.76513315505168     -7.14073981769819      1.33869859092918
  H   5.02692352636575     -5.33459045299179     -1.57673417915138
  H   7.37486417463364     -4.89286610171718     -0.57078407912115
  H   6.73734938176384     -0.37725652763394     -0.80397294083813
  H   4.86998486940490      1.04037854960239     -0.47634371422007
