21
Coordinates from ORCA-job 20691optt
  Br  1.06690889486368      0.01010113741221     -0.10622278569796
  C   2.94223322372257      0.02077994816317     -0.09845677737148
  C   3.64357849156416      1.18631029153594     -0.09570767804964
  Br  2.81042701853013      2.86212968374764     -0.09682543683602
  C   5.09717800532225      1.17295832390611     -0.09219170648023
  N   5.74542525119212      2.30739130048477     -0.09006038405502
  C   7.11428903190554      2.34379703555707     -0.08780130031450
  O   7.79844328771476      3.33385836695488     -0.08537392549818
  N   7.75220710751922      1.07440058383809     -0.08895647770134
  C   7.12060588670002     -0.09284487072912     -0.09081026952931
  C   8.01515846360621     -1.29500797681051     -0.09238787547517
  O   9.20702897281785     -1.16753512432826     -0.09141082474250
  C   5.73853012268070     -0.12435670617035     -0.09209075165335
  C   4.96484321705757     -1.31555052472375     -0.09322048870591
  C   3.60609370836792     -1.26707533651866     -0.09599642339431
  C   2.86169203331582     -2.48467387699047     -0.09591334478927
  C   2.26998650486646     -3.52679813201613     -0.09564003415054
  H   8.76867359444308      1.07130624967692     -0.08833697115084
  H   7.53678423847125     -2.28231373240920     -0.09492326229355
  H   5.43876418079209     -2.28605976520072     -0.09141691172680
  H   1.72814876454654     -4.44281687537964     -0.09525637038409
