21
Coordinates from ORCA-job 20702optt
  Br  1.07656151011969     -0.08512028376070     -0.09680639926195
  C   2.95970401458562     -0.14087034885169     -0.06385915190563
  C   3.64074123898913     -1.33097886562835     -0.05129530344647
  Br  2.81631580945843     -3.01282608138097     -0.05690097536191
  C   5.05522167221835     -1.26886029165335     -0.03543836520961
  N   5.91413874400446     -2.30846583524339     -0.02667507917929
  N   7.10611078000454     -1.73714033680368     -0.01779269370071
  C   8.28563283218677     -2.41079017580144     -0.01154396652054
  C   9.43259734062348     -1.66979062258411     -0.00663323488833
  N   9.46433162914436     -0.30959159375690     -0.00630724362211
  C   8.31919421194395      0.31452521409131     -0.01197444114983
  C   7.08193701516376     -0.35391463270145     -0.01877914488203
  C   5.71941275424418     -0.01600303461396     -0.03047144244944
  C   4.99293640864343      1.18784414099627     -0.03890951082264
  C   3.63061512431298      1.11201034530667     -0.05570834160199
  C   10.69993156935831     -2.35336410385048     -0.00300660497322
  N   11.69836757433143     -2.91590124170740     -0.00096134217685
  H   8.23551605315168     -3.48877744148216     -0.01213510116079
  H   8.33816019362312      1.39851694959830     -0.01201356332259
  H   5.49120505253368      2.14777801372538     -0.03278677483656
  H   3.02936847135862      2.00972022610210     -0.06300131952751
