21
Coordinates from ORCA-job 20707optt
  Br  1.18679704042430      0.16574603238300     -0.09808403093376
  C   3.06143750573824     -0.00439162378533     -0.09833918058424
  C   3.67918245106175     -1.21471743658260     -0.09912688758664
  Br  2.76374715611027     -2.84370575300725     -0.10032420629229
  C   5.12125535938140     -1.23226643446031     -0.09908331485035
  N   5.76323825255750     -2.38132436618773     -0.09948687460177
  N   7.06864818892540     -2.33553492122705     -0.09951378779677
  C   7.88493496508458     -1.23051236082585     -0.09936505297533
  C   9.24938939009364     -1.31392714983516     -0.09965361473615
  C   9.99986878973915     -0.09447484193322     -0.09949092901553
  O   11.21802929999776      0.00380827100568     -0.09968992267395
  C   9.16949208865333      1.14694127566735     -0.09902303216947
  N   7.88493287022720      1.21418313196799     -0.09866915350810
  C   7.19204087169963      0.03094828574333     -0.09886545436758
  C   5.81244626061548      0.02086143568543     -0.09860913334638
  C   5.01270066113575      1.21577653290911     -0.09790119145238
  N   3.72480620171892      1.19074235225164     -0.09772293001341
  H   7.50636716831311     -3.24848256990960     -0.09978103122006
  H   9.77224675599101     -2.26164346239093     -0.09996683453325
  H   9.73207326385421      2.07776522695329     -0.09885280696411
  H   5.51136545867729      2.17720837557824     -0.09745063037850
