21
Coordinates from ORCA-job 20701optt
  Br  1.18321811604204     -0.30980424384695      0.18411688424481
  C   3.05284924383661     -0.27977441470686      0.03107701945307
  C   3.80809778490539     -1.39551873178907     -0.12103686881235
  Br  3.08985093240341     -3.11774377805967     -0.19725496225434
  C   5.23794165123016     -1.23457673955125     -0.22275041689869
  N   5.98535304786979     -2.30841903296403     -0.38074930229116
  N   7.28179435454900     -2.08938964637676     -0.45976906180641
  C   8.25402404125922     -3.03485499322585     -0.62887096744534
  C   9.44460229741092     -2.31019598269040     -0.64110812649816
  N   9.24712028033563     -0.99507424995286     -0.49259077325963
  C   7.92988786723876     -0.84543614643244     -0.38265644499631
  C   7.13203608957823      0.27536231589207     -0.22064383430066
  C   5.76344047469470      0.10136896592548     -0.14301245938892
  N   4.95709667121455      1.19866568370472      0.00841563875591
  C   3.68470840902567      1.01210371657882      0.08655534654744
  C   7.98669353083782     -4.41156306157053     -0.76327523545722
  C   7.77244704440146     -5.58495175920880     -0.88437251853664
  H   10.43110744906386     -2.73123097309012     -0.75638258834560
  H   7.56930982262836      1.26161447232456     -0.15685905132649
  H   3.04839195899070      1.88317495098520      0.20145139348920
  H   7.58302893248364     -6.62575635194526     -0.99628367087251
