22
Coordinates from ORCA-job 20719optt
  Br  1.00522502836099      1.32768469206835      0.08817967130499
  C   2.65930237634988      0.44027662411230      0.00311743232254
  C   2.76166528355961     -0.90813629660990      0.04692314856011
  Br  1.29449843496969     -2.05304761923169      0.17047151069545
  C   4.08018225610141     -1.53818850824134     -0.07249646607213
  N   4.17953041353927     -2.79299276746106     -0.25761849428145
  N   5.39123310434191     -3.37181321191397     -0.60346021279728
  C   6.59038044189810     -3.29687486383963      0.08302918789642
  N   7.43863074780292     -4.22838417226214      0.22258097312104
  N   6.93759641658047     -2.05310350665220      0.61044756035232
  C   6.48910192517406     -0.82082004770400      0.24367781658706
  C   7.16919730980521      0.34495819112370      0.23706851524142
  C   6.22738788055833      1.42680554824420     -0.00881982574598
  N   6.34730549659670      2.68025581249547     -0.13743048765681
  C   4.88698462993344      0.75212145759928     -0.08372350910111
  N   3.73507977012823      1.28989746470115     -0.09335291754704
  N   5.12026449205628     -0.61184339420972     -0.02549425763670
  H   5.20763934335060     -4.31661392444926     -0.90476478894659
  H   7.09918213273673     -5.12160920113262     -0.11894273839402
  H   7.86999440579356     -2.07653557231581      0.99928781049854
  H   8.22733311996987      0.45182888469475      0.40720944481270
  H   7.32228499039263      2.96513441098413     -0.04288937321349
