22
Coordinates from ORCA-job 20715optt
  Br  0.95336662481451     -0.49201087944323      0.38654839180146
  C   2.82342193676249     -0.26187474009700      0.26562054675139
  C   3.61354534540441     -1.18211822271118     -0.37624407262983
  Br  2.98099116174945     -2.74142158765287     -1.18703348817322
  C   5.00021299071935     -0.90052078290974     -0.39900270590537
  N   5.99547313201294     -1.62222227839338     -0.93237409573745
  N   7.07485289538698     -0.91617063891166     -0.65841303518154
  C   6.87118592790216      0.22495597065961      0.01205116622284
  C   8.04912487380894      1.05270418932839      0.33949344276684
  O   9.17252139887462      0.62633062117707      0.16862148959886
  N   7.77904450061904      2.28720700212655      0.84522949291060
  C   8.85375294417000      3.21319595239170      1.11937953215010
  C   9.01037491044513      4.21969780358061      0.05808307609920
  N   9.10813123212064      5.01249467602055     -0.76216770551814
  C   5.48743472793538      0.28477405409850      0.21707109414424
  C   4.55776609796615      1.13537317197424      0.85184143972747
  N   3.28636343947188      0.85724356860502      0.86246957779154
  H   7.99069071116841     -1.24278455418480     -0.94224790929776
  H   6.83867571404144      2.64255587872414      0.78190945954053
  H   9.77328758519502      2.63394966356055      1.19525769613368
  H   8.68329711303739      3.72608590925172      2.06558251739652
  H   4.85348473639355      2.04155522280519      1.37132408940802
