22
Coordinates from ORCA-job 20712optt
  Br  1.15983780540940     -0.27343298062491      0.28658171083438
  C   3.03652499528143     -0.17820336839971      0.08391312565351
  C   3.82240411433802     -1.28566780719721      0.29152873318091
  Br  3.19925519094349     -2.97902873685415      0.78120914212082
  C   5.20504320477238     -1.08049306566647      0.11502316237057
  N   6.25291833892062     -1.90916143146658      0.23127071675211
  N   7.27259866992130     -1.12833336850223     -0.05100984351648
  C   8.63086540081776     -1.65117014340692     -0.05065530655569
  C   9.03676464787955     -2.18246460637084      1.28393832793364
  C   8.31605841536236     -2.54733918445396      2.36366182915082
  O   9.19169043851936     -2.97648830622597      3.31141730038754
  C   10.40039272371814     -2.85398246803545      2.74552714506913
  N   10.38105602187652     -2.39015106658354      1.54774239363471
  N   7.02779619002462      0.11829961710084     -0.34360428860430
  C   5.68737106680654      0.19064504228646     -0.24748077997689
  C   4.77727061299545      1.24957815523737     -0.43457814837967
  N   3.50120016552724      1.04045041059679     -0.26743168410747
  H   9.27772337615665     -0.82718165657563     -0.34006651636512
  H   8.68896636045283     -2.43243012232314     -0.80999478006798
  H   7.26844904435207     -2.57723582866069      2.59906430762725
  H   11.25383372710375     -3.14397607395029      3.33562416022747
  H   5.09997948882044      2.24476699007626     -0.71668070736927
