22
Coordinates from ORCA-job 20713optt
  Br  2.95246043752332     -0.27483929775840      1.09894011353536
  C   4.49570619920115      0.56408461256773      0.46150669265953
  C   4.54097920619692      1.86129249944624      0.12024146304429
  Br  3.04645920669533      2.98044235713542      0.25916369337689
  C   5.77148469121710      2.47512773828399     -0.43651159838747
  N   5.64419256909292      3.63742007917533     -0.95577962306641
  N   6.81441691113585      4.14930594315033     -1.59289043709197
  C   7.70757255855998      4.61904633166018     -0.59280072659679
  C   8.55264041322669      3.73838976176347     -0.05709519697788
  C   9.56369621810178      4.10593909296671      0.88392162066741
  N   10.35843256264026      4.40543852230257      1.65458400571227
  C   8.41654447071913      2.30076088726176     -0.46072191711783
  N   9.45551103450769      1.67736180657271     -0.81766024676765
  C   7.03895926474347      1.69446789864178     -0.32522296554559
  C   6.96292533603252      0.41841434701374      0.06776991721623
  C   5.70417791311747     -0.28199916595905      0.35512858446184
  N   5.63035253664581     -1.53608088491944      0.54271122621144
  H   7.26137812175584      3.40659845684889     -2.12603460476024
  H   7.64408441135461      5.65987481268186     -0.30499075962030
  H   9.25521237634203      0.71929681205316     -1.10569726804124
  H   7.86646905189334     -0.15703237842624      0.23887710427285
  H   6.54534450929670     -1.97831023246278      0.45156092281528
