27
Coordinates from ORCA-job 20716optt
  Br  1.16074360181925      0.11055987172577     -0.90846835093441
  C   2.95399243901808      0.01795951184418     -0.35513362958336
  C   3.80198454338009      1.05986190192141     -0.58197712911456
  Br  3.30958356201486      2.66947406595065     -1.39205321121056
  C   5.16103934211752      0.88010939735573     -0.18770309669253
  N   6.19194928113853      1.64952011054162     -0.26334240244790
  N   7.24957579233665      0.88645080517154      0.22162759389831
  C   6.92894648547105     -0.38646431300690      0.64682747347718
  N   7.62508282815681     -1.32382874098920      1.15122123908226
  C   5.47730071924264     -0.41931958769004      0.36318095257626
  N   4.64476935074605     -1.37068481402275      0.56688098767134
  N   3.36484871062843     -1.15068169640178      0.25777808142433
  C   2.51046397308446     -2.34067111844708      0.45928666931648
  C   2.68188901300705     -3.35292628124889     -0.69306493080344
  C   2.99289042978887     -4.67802754563531      0.02757868287994
  N   3.65693446896567     -4.31050631116049      1.27513664734456
  C   2.92425276718051     -3.13650059730702      1.72363566204691
  H   8.13979730300931      1.33804377924103      0.32883392794000
  H   8.60243206038386     -1.06034538053443      1.25813977853836
  H   1.49082893126879     -1.98862064162814      0.55204700316601
  H   3.54106369378661     -3.05459368983070     -1.29621276699190
  H   1.80954187392810     -3.39568091282790     -1.34412760774440
  H   3.61140691300587     -5.34838065645070     -0.56588890027093
  H   2.06555917256951     -5.20190967728773      0.27328020625430
  H   4.61467982626108     -4.03313181064495      1.07990356685161
  H   3.50828558611211     -2.54305646371918      2.42217086568347
  H   2.01115733157798     -3.46664920491864      2.22444268764262
