22
Coordinates from ORCA-job 20718optt
  Br  0.90486638143695      0.23469588921387      0.27001955183916
  C   2.76449686528379      0.05249079100241      0.10470221600860
  C   3.61034302638208      1.07170592855632      0.33551237433506
  Br  2.96016135146561      2.75689477312774      0.85491002363431
  C   5.07381680551521      0.99119549879335      0.17204854270092
  N   5.71187833944990      2.11603499264355      0.15989709484033
  N   7.02422215636020      2.10077743809744     -0.01554164931189
  C   7.83993266785874      1.00267510662680     -0.17742800153484
  N   9.09757563453708      1.01565003823609     -0.39050503878542
  C   7.12015896263938     -0.27188590459908     -0.09727686445632
  N   7.94970633759640     -1.36575758733052     -0.23487734145000
  C   7.86681366547273     -2.58672717077568      0.39910407057060
  O   8.70921729934657     -3.43323198939661      0.28607047034961
  C   5.76336992521891     -0.27324166654164      0.01758725966462
  S   4.87741845421968     -1.77980795464481     -0.04295470324656
  C   3.19748139245556     -1.29056163103940     -0.33344233299550
  N   2.37668946697257     -2.12634039941888     -0.80163699442189
  H   7.44563325362559      3.01775670846739     -0.01864179030624
  H   9.49049190913931      1.95015777095472     -0.45729886019955
  H   8.87048024031454     -1.12841440518186     -0.59968507356943
  H   6.98012633113859     -2.70654653964841      1.03541559289695
  H   2.81511953357057     -3.00651968714280     -1.06997854656250
