22
Coordinates from ORCA-job 20729optt
  Br  1.24284951383562      0.07974552902718      0.73022166927720
  C   3.09194824038418     -0.04529666545135      0.44375077459568
  C   3.66633116616589     -1.09592317612367     -0.19633152365208
  Br  2.74911083605354     -2.56633304958071     -0.88505619762759
  C   5.08639631027075     -1.02846550694553     -0.33530787681540
  N   5.90315348257387     -1.88613916771205     -0.89901415528653
  O   7.14049672569823     -1.31970612497540     -0.75975629182427
  C   7.08657400284012     -0.15076920102085     -0.12911087178717
  C   8.38080110944052      0.54885333024448      0.10605331097605
  C   8.27507886564640      2.08314647041419     -0.00819958747423
  O   9.19442886753372      2.57609245531359      0.95995248084314
  C   9.46716911848998      1.61138971480902      1.87503840032378
  O   10.13526058298106      1.78151018958683      2.84609429950615
  N   8.84231901332458      0.44883936785948      1.47493817718454
  C   5.77493089878742      0.10680915464103      0.18174234736110
  N   5.17527246544209      1.15067105927983      0.82192783150164
  C   3.89348244066482      1.05750557088908      0.94015813323051
  H   9.11201113301795      0.14544600832856     -0.60150391690158
  H   7.27051805644888      2.42100303994579      0.24614793034364
  H   8.56496884891990      2.45019622959004     -0.98877819176715
  H   9.17854503546943     -0.41648396459316      1.86542427720860
  H   3.37135328601098      1.86190873647360      1.44660898078398
