21
Coordinates from ORCA-job 20724optt
  Br  3.60870975319879      0.67569952042964     -2.00677862976950
  C   3.31342950019723      0.51829927832838     -0.14738991339490
  C   3.26849134728729      1.80165178214779      0.88807972388175
  Br  2.42924813247212      1.72624383146653      2.62692921606174
  C   4.64401839518572      1.33469664867385      0.89849619389968
  N   4.40349377046836     -0.14428690765785      0.63889558499546
  O   3.23764910653950     -0.80851796337953      1.36850562800121
  C   2.30060132528009     -0.26781211564953      0.48042775766604
  C   1.02546939888231      0.11602483081413      0.38391953723728
  C   0.76928673109481      1.37306117959993     -0.39553868077667
  C   1.49325517517422      2.51162595597836     -0.57490541417348
  C   2.79747588670935      2.96807256941472      0.11417028405759
  N   3.92993479292825      3.54801398312798     -0.62329624992207
  C   5.10954176738076      3.13186257690723     -0.37376098657954
  N   5.56227392659733      1.92322428119559      0.25386859925784
  C   6.20853067428890      3.88039553598967     -0.96080902076448
  N   7.08089257144052      4.46893178376607     -1.41151312022633
  H   0.20355616282263     -0.34283667698098      0.91376947634031
  H   -0.20555745606267      1.39688898147105     -0.87112841242257
  H   1.02581201850949      3.28105067171763     -1.17898049515279
  H   2.48188701960494      3.77571025263930      0.78303892178344
