26
Coordinates from ORCA-job 20746optt
  Br  0.99024084394516     -0.40767364512132      0.22614983474778
  C   2.83959536613701     -0.24519414103897     -0.11737627566455
  C   3.40249705240506      0.94643757589678     -0.56805559925537
  Br  2.31591356882540      2.46044799385102     -0.83198098419904
  C   4.78742560386313      1.00723235874528     -0.81709149550441
  Br  5.55457770179782      2.59887935661520     -1.48855381950126
  C   5.57338170011737     -0.10258171578065     -0.57727219107856
  C   4.97349853988480     -1.28743350797052     -0.12787260317999
  C   3.62127759792128     -1.37781442338370      0.09422529429940
  C   6.05398382835589     -2.33298159501142     -0.04952128510132
  C   6.47993406352632     -2.59072150253127     -1.51085631717239
  O   7.06785128430592     -1.35276235336520     -1.91460811000025
  C   7.05000396980972     -0.47489977051943     -0.77440009622667
  C   8.10556779441266      0.59690954828079     -0.96808344384669
  C   9.45896089301063      0.05154820667081     -0.88622269240101
  C   10.56777370738582     -0.39260356495090     -0.80430357373489
  C   7.24280215676052     -1.46121115286374      0.38733548331061
  H   3.15937575246526     -2.29530889222174      0.43235242945663
  H   5.82373227702056     -3.22362535897696      0.52777894094566
  H   5.63739974970335     -2.82708096546902     -2.16193480294654
  H   7.22808767422442     -3.38343920228783     -1.57601867245613
  H   7.97749988510748      1.37247754757665     -0.21037373861019
  H   7.96212887685240      1.06776121747362     -1.94072995090080
  H   11.55517109467109     -0.78308991094864     -0.74079850393665
  H   7.10732340706471     -1.00340050207079      1.36551621280251
  H   8.20799561042616     -1.96087160059805      0.32069596015411
