25
Coordinates from ORCA-job 20749optt
  Br  1.01599754743605     -0.00116595860012      0.02702426785909
  C   2.90791349284685      0.04393317892311     -0.05341374456641
  C   3.63086430312436      1.11270495133206      0.48330536205453
  Br  2.77174480526537      2.59445699747078      1.24470645522091
  C   5.02184839473029      1.02480796434566      0.41671597851542
  Br  6.09870678067977      2.41407259507840      1.09360066079825
  C   5.63227204161634     -0.08263956495522     -0.16631365842986
  C   7.14396980315964     -0.24953268657089     -0.22928005928544
  C   7.70869412986653     -0.46585423694009      1.10466925543442
  C   8.17565247502381     -0.69964920712737      2.18222341444428
  C   7.51984541986693     -1.42308680624780     -1.15641293407568
  C   6.69251054322381     -2.65198619933277     -0.80372830193013
  C   5.37820379009568     -2.22776806116466     -1.45895150364661
  C   5.90933722268146     -1.72780856688649     -2.80600690540799
  O   7.14816273543373     -1.09319070779377     -2.48693906745086
  C   4.79315796149322     -1.05936555447218     -0.70889041228127
  N   3.46839192501874     -0.98401256448687     -0.64269720111037
  H   7.57901097462770      0.65781044433726     -0.65686149507441
  H   8.58705291358654     -0.88795487087014      3.14517397953228
  H   8.59651416771208     -1.58046420404979     -1.11982660296815
  H   6.61789498146815     -2.81606078843327      0.27001162464353
  H   7.09633432115808     -3.54437082739123     -1.28134639699293
  H   4.63052021100857     -3.00984522805489     -1.56092347946932
  H   5.25135284480931     -1.00300091136135     -3.28553151248024
  H   6.08704621406696     -2.56202918674837     -3.49030772333302
