26
Coordinates from ORCA-job 20747optt
  Br  3.04373123780724     -2.14371223871898      1.20125306539181
  C   4.34473504946080     -1.17402067349947      0.23032156584531
  C   4.32397421120249      0.22803128080536      0.20733526124672
  Br  2.87871437437828      1.17468597519266      0.95219887362685
  C   5.44405135308571      0.93526417967910     -0.26356011671443
  Br  5.71560647550234      2.76283367516113      0.08999202059635
  C   6.46507356052268      0.22079783385081     -0.86641455429313
  C   6.24620082358294     -1.12682365870274     -1.16927756584321
  C   5.35646877062667     -1.87936190162839     -0.43439834453531
  C   5.82904644213533     -3.28745299427167     -0.12368424254177
  C   7.08552669580240     -3.26444519728624      0.81607639218695
  C   8.47986187276925     -3.15585278991219      0.10870742909536
  C   9.65151933946997     -2.22632407240933      0.53138046690060
  O   10.69407172444635     -2.68010314478125      0.91534848598240
  N   9.56119266648817     -0.84735331996724      0.23502641262482
  C   8.31093705022218     -0.34953564575647     -0.00086886730161
  N   7.86435698707414      0.52524017608033     -0.82259027412761
  H   7.02590292011849     -1.62857744424577     -1.72357253504641
  H   6.08055535013522     -3.81167968470846     -1.04850342575500
  H   5.04309177194236     -3.85535947784563      0.36841611665468
  H   7.08909535530958     -4.20326676010183      1.36873849953121
  H   6.94118211895810     -2.49223427712324      1.57374208256975
  H   8.33257635642606     -2.93600924831681     -0.95019128343890
  H   8.94806197886431     -4.13701061385705      0.15015368545790
  H   10.41906572628176     -0.37084213010918     -0.00768471237486
  H   7.61339978738711     -0.89988784752742      0.61705556426154
