24
Coordinates from ORCA-job 20750optt
  Br  1.84968957475099     -1.02562533247141     -0.81415406582532
  C   3.60326864534492     -0.51761340399432     -0.40963025878909
  C   4.02230374810684      0.76323201893221     -0.44306156986337
  Br  2.86112022360166      2.15669399290360     -0.92817209741699
  C   5.40860851344546      1.09788940481724     -0.08795557060123
  Br  5.95839602608607      2.89339701146305      0.04878905181851
  C   6.32218227353792      0.14076798793470      0.12695496149648
  C   7.76130967523629      0.26964879828434      0.36907553621715
  C   8.30317800012778     -0.32663128913714      1.43095482542160
  C   9.51966353683422     -1.10682057445708      1.24501590560678
  C   9.47639516336752     -1.98739495234111      0.23830482543930
  C   8.32895670693115     -2.26639194228173     -0.68654869733354
  N   8.53973076217025     -2.73637475874874     -1.85106253256203
  C   6.85189978913244     -2.24350985915028     -0.35269421468132
  C   5.96627900383845     -1.27312335235141     -0.03822878161233
  C   4.51404604111548     -1.60776206101370      0.02042061944025
  N   4.02677580325177     -2.70996640261037      0.41611790112953
  H   8.38359993906023      0.50548826906840     -0.49059124093109
  H   7.70409750674303     -0.51190115965735      2.31888015810389
  H   10.37162280499495     -1.07089137054939      1.91386994656787
  H   10.33921931432743     -2.61564987003102      0.03581153173005
  H   9.53869603200563     -2.78942883368147     -2.05506553108410
  H   6.41936787190950     -3.20653548158337     -0.60646892404252
  H   4.76059304407990     -3.33549683934363      0.74843822177153
