23
Coordinates from ORCA-job 20757optt
  Br  1.04842381543661      0.33199299161898     -0.11712449293735
  C   2.91228683919638      0.10983206647419     -0.02973967102456
  C   3.55876983715191     -1.10218111344160      0.11686650823256
  Br  2.52364700968291     -2.66364862370400      0.29758064041314
  C   4.98356416233389     -1.18222867875110      0.13215789311192
  Br  5.82059515417363     -2.87460727882988      0.26116097274273
  C   5.76786973391978     -0.04860315323233      0.03148603540655
  C   7.27359459776673     -0.00788673206833     -0.02121795649128
  C   7.83513566695962      0.91397540293364      1.05379496264378
  O   8.42679578217641      0.47853537295642      2.00220534909089
  C   7.66493859039637      2.42988885160769      0.93637428524866
  N   6.87188636655391      2.89792975628144     -0.19285439755547
  C   5.53658326051610      2.51994098363658     -0.18247688355423
  N   4.52609828778638      3.34090114486855     -0.30822669656565
  N   3.40885714873785      2.56592922996276     -0.29287731927957
  C   3.70210994701674      1.25854886714425     -0.12470945268685
  C   5.09145480663767      1.17060344334559     -0.06098595002789
  H   7.56824529829769      0.38639551145190     -0.99859861240784
  H   7.71275674302357     -0.98871616342264      0.12548245980840
  H   8.67513476687365      2.82959412873931      0.83631111337604
  H   7.27475184457898      2.76699251465119      1.90352951696762
  H   6.97284004821526      3.89141010194361     -0.35168542440651
  H   2.50066029256790      2.99140137583378     -0.35845288010510
