25
Coordinates from ORCA-job 20751optt
  Br  1.18378047808248      0.12058540419782      0.31030815672894
  C   3.05510304115722      0.02777171803492      0.04311878247189
  C   3.66962631450576     -1.14498996845902     -0.39636130200057
  Br  2.67899716590399     -2.70396591021887     -0.71918004151846
  C   5.05704511357146     -1.10280329615926     -0.57517786442875
  Br  5.96355571174520     -2.62095075604265     -1.22732341362617
  C   5.77515909701433      0.05504474573522     -0.28165814272064
  C   7.27217769277602      0.17447310266856     -0.33639329805116
  C   7.76202397160370      1.14363857138690     -1.41527564016981
  C   7.61178282155059      2.60186892474005     -1.02545250626998
  C   6.18014616460597      3.01068450184721     -0.74099531824098
  O   5.63027325269829      2.33428113943148      0.39398393111489
  C   5.01595888272645      1.15726432714175      0.12296118922247
  N   3.70921487309489      1.14089221247947      0.27987734053876
  O   9.17292780500015      0.94604449283995     -1.61735220096086
  C   9.53267639282438     -0.10974449823848     -2.35068994769422
  O   8.78597974834755     -0.90036519254922     -2.84525523657276
  H   7.71013990032511     -0.80139557784720     -0.52247557238686
  H   7.63019217488758      0.53166561585086      0.63324223578174
  H   7.24901932041739      0.92867671839915     -2.35620156245659
  H   7.99977691519498      3.22918073652569     -1.83102478781423
  H   8.22068808155802      2.79067941692627     -0.13812059191254
  H   5.53529315564514      2.83593479844134     -1.60751199845765
  H   6.13925027376265      4.07028530879646     -0.49552952044612
  H   10.62521165100063     -0.14375653592843     -2.43451269013033
