22
Coordinates from ORCA-job 20754optt
  Br  1.27302030612903      0.48205890715652     -0.30244314687004
  C   3.09450329418938      0.10050660354614     -0.11681357949772
  C   3.60223211122908     -1.16014290979314      0.14792521196204
  Br  2.43179842737380     -2.61469241424417      0.34263613481540
  C   5.00143220620790     -1.32428915438171      0.26605876420738
  Br  5.76991223878904     -2.99454348667746      0.62308648491124
  C   5.83641761521864     -0.23892560209297      0.11985696181944
  C   7.22553862669849      0.01797221804542      0.16447360311418
  C   7.34050999899499      1.37352856796474     -0.07349059064110
  N   6.13437620807793      2.01328974547517     -0.26833909954456
  C   5.25516679076658      1.05110633829759     -0.15117690462662
  N   3.90921662275222      1.16304039309290     -0.25967995366220
  C   8.59454217877981      2.16552724318131     -0.12859423027991
  N   9.77111578185429      1.70925393581131      0.00435802714948
  N   8.36969792184675      3.51604020489540     -0.34642707297602
  C   9.35568758996204      4.46853287496860     -0.43343391095468
  O   9.11989140388469      5.63367062504965     -0.62388988620691
  H   8.00623356142575     -0.70039851255136      0.34875314885731
  H   3.51302485121562      2.07469165365688     -0.45539737360649
  H   9.75588039347377      0.70588979882415      0.15647061844460
  H   7.40855283770381      3.81464124769022     -0.45054472416781
  H   10.36224903342635      4.05324172208480     -0.31038848224700
