22
Coordinates from ORCA-job 20758optt
  Br  1.29400298806392     -0.11420673960351      0.13954819603980
  C   3.18065102623498     -0.18129431418898      0.09036372231761
  C   3.86308692856869     -1.38848549520433     -0.09017827863706
  Br  2.94429950833597     -3.00329196566521     -0.32217638335973
  C   5.25742293646701     -1.32646706660817     -0.09185983203056
  Br  6.25869755572557     -2.90924093716577     -0.32452348478675
  C   5.90623941725798     -0.10316099592952      0.07424332505078
  C   7.41167738833223      0.05304407219427      0.05339629742741
  C   7.89332836844392      0.94369685127831     -1.10120797331194
  O   7.74073096167673      2.34046334416149     -0.96252327519299
  C   6.59828404531596      2.99021773914287     -0.61952795936075
  O   6.40651002893870      4.07552256191328     -1.06868487415003
  C   5.69898814637080      2.40005840030318      0.45371353536947
  C   5.11151916967083      1.03137451838702      0.22973986053052
  N   3.78534254504548      0.97244057436019      0.23759676609190
  C   7.93378389434810      0.50997221359949      1.34629056126311
  N   8.33574467920566      0.87897125396376      2.35351838106165
  H   7.86210044020421     -0.92228966950932     -0.13094810011457
  H   7.39035211793663      0.60650243174460     -2.01118387966604
  H   8.96553703615109      0.80389050249372     -1.22333089490832
  H   4.87701383899108      3.09843464547098      0.57426847964834
  H   6.28568697871435      2.39684807486165      1.37846581071815
