19
Coordinates from ORCA-job 20769optt
  Br  1.08290814765969     -0.00798004436630     -0.06621044973764
  C   2.96470484520507     -0.12427293139862     -0.02490018655679
  C   3.63151507680879     -1.35907518920608      0.07164816884855
  Br  2.63156185257397     -2.94505566055078      0.22857721402599
  C   5.02768073034259     -1.40888769223665      0.07775382206837
  Br  5.94243130962162     -3.02533090169660      0.32429690942038
  C   5.75005077094644     -0.21564815021022     -0.03555188054497
  C   5.03030080690774      0.97902342856320     -0.07117677671880
  O   5.87219581301277      2.05635042495539     -0.08447171474731
  C   7.11780810904915      1.54752370524053     -0.05916831408395
  C   7.14857445899230      0.18610140176563     -0.05439138915273
  C   8.41251835216090     -0.52748228601731     -0.27810117673618
  O   8.50069782313503     -1.61301473221345     -0.77883003743535
  N   9.59800299739265      0.16744941392702      0.09134045099382
  C   9.68916046790926      1.42136899525210      0.17437907854458
  S   8.43799396352710      2.64560517033993     -0.03018737841016
  C   3.65804879010322      1.07084355038299     -0.07886227164047
  H   10.64633178475568      1.88078551728652      0.41037687292165
  H   3.14851389989595      2.02169598018270     -0.12252094105900
