18
Coordinates from ORCA-job 20770optt
  Br  0.99167038462079      0.09603169395380     -0.26029204597322
  C   2.83698768727799     -0.08078537773771     -0.11283403142811
  C   3.50092948758440     -1.24900249947334     -0.21615183301449
  Br  2.55486408142762     -2.83620341805729     -0.53430280529717
  C   4.97371725871850     -1.30124704771447     -0.06881003693283
  Br  5.77246662173641     -2.99080012916283     -0.11784721388397
  C   5.72636936243231     -0.17878544189870      0.06486521114781
  C   7.21014604659986     -0.17366523977681      0.19514257741649
  O   7.89390749298599     -1.09513819117145      0.53489498268059
  C   7.88783807443477      1.17272591544579     -0.12167823704904
  O   9.06415110289185      1.22381066292216     -0.32037586399646
  C   7.01529941959685      2.41365507141016     -0.16122927424582
  N   7.51187616553860      3.56506246243263     -0.29753319542455
  N   5.62595624028251      2.28386279045332     -0.03481145224159
  C   5.07394412642584      1.13937554477640      0.06245589859759
  C   3.56062802284915      1.18841781189368      0.17873607525691
  O   2.99059088012143      2.19431712494081      0.48184351641199
  H   8.52965754447505      3.48136826676385     -0.37907227202411
