23
Coordinates from ORCA-job 20774optt
  Br  2.44454129785416     -2.31363471376300     -0.45131846409853
  C   3.90535463640110     -1.23404266222648     -0.00239110232949
  C   4.03682194586242      0.07432188731050     -0.31050990599390
  Br  2.67661097026565      1.04195776172141     -1.16442196821985
  C   5.32463065146184      0.73365182673548     -0.03920588708670
  Br  5.98082171353542      2.07241186520255     -1.18603744988546
  C   6.11135959645386      0.17701881383449      0.89311671612161
  N   5.55026823337491     -0.90069887052093      1.62466369813998
  C   5.05129147337870     -1.84564580427917      0.70182986796251
  C   5.75473481797939     -2.92990082960724      0.31002738413083
  C   7.18911759715131     -2.89923477300270      0.59111168132328
  C   8.17961082882458     -3.05245163703855     -0.29663743111652
  C   9.45282755118666     -2.29043766634612     -0.13926958383545
  N   10.61999317496450     -2.62155577483888     -0.44626972290074
  O   9.30706704666173     -0.99828182058140      0.39902918389206
  C   8.10857805783247     -0.41112573498277      0.20579096638953
  N   7.50336551251298      0.21007792119117      1.12644797548072
  H   6.20316281105450     -1.25445268732165      2.30784022522433
  H   5.33769837283346     -3.59949882495264     -0.43180342268037
  H   7.48061630707877     -2.41803331237149      1.51552526126099
  H   8.02813888046673     -3.53159022415698     -1.25752649482007
  H   10.64478301759138     -3.58868623339484     -0.75985996559958
  H   7.66560550527340     -0.58516850661075     -0.77613156135919
