16
Coordinates from ORCA-job 20772optt
  Br  1.05452564647991      0.00704494904448     -0.01468957944806
  C   2.93788926959303     -0.04671903621083      0.05796726139787
  C   3.64301946791065     -1.27201593736385      0.08797292168583
  Br  2.68783951243013     -2.89171010264549      0.06763544566470
  C   5.02986142779066     -1.26770379044053      0.13368986840880
  Br  5.97988134020619     -2.88644252888121      0.24015210340104
  C   5.72854481176484     -0.04512200122345      0.12122298747707
  C   4.98739491448674      1.14567234061502      0.10833174849489
  S   6.06255389096017      2.48496579319289      0.11796154247346
  N   7.41817920178757      1.55951484353890      0.11804422678579
  C   7.14494490752559      0.28293670087363      0.11631539677578
  C   8.24945640809261     -0.62438605726424      0.07681684133560
  C   9.22281419143045     -1.31957834183919      0.02492980937209
  C   3.59532534238051      1.15806371146452      0.08112208072850
  H   10.07807097130341     -1.95102640592838     -0.02197146895856
  H   3.03769869585743      2.08350586306773      0.07049881440520
