19
Coordinates from ORCA-job 20781optt
  Br  1.32595137433998      0.68740177832993      0.49664514398937
  C   3.08742551670007      0.12025478762145      0.20022284177894
  C   3.42859595009215     -1.22614577089627     -0.03714355103765
  Br  2.07470027625697     -2.52585877534975     -0.04023259288154
  C   4.75641580185500     -1.60939354624685     -0.28678954410927
  Br  5.23679122245720     -3.37990224379175     -0.67640847209945
  C   5.76376065817540     -0.64423653004328     -0.28165429646641
  N   7.14330956583649     -0.89383874223854     -0.56739444660958
  C   7.94605994836108     -0.10937576066414      0.28775887842397
  O   8.25337962638782     -0.41009376192335      1.38592555468285
  O   8.36622298634756      1.12457909348692     -0.24341615482552
  N   7.44392809317118      2.14811951480463     -0.21860919851109
  C   6.20565359366782      1.87954905974456     -0.06808476540429
  C   5.18037086951394      2.94400613004614      0.11725392002619
  N   4.00160599933446      2.47568461114813      0.28929663917492
  C   4.09835596480223      1.06181605838715      0.18911427808027
  C   5.40908384416286      0.65373218199491     -0.01926849834926
  H   7.34707561335430     -0.71924318446582     -1.54620424841010
  H   5.40631309518344      4.00194510005591      0.13998851254765
