20
Coordinates from ORCA-job 20786optt
  Br  1.22532513442920      0.36467534646369      0.07637958570749
  C   3.06276709067783      0.07743659348233      0.06340071100534
  C   3.67492315998184     -1.12413316290423      0.06314094155177
  Br  2.67366107221980     -2.70476249833130      0.08210302620064
  C   5.13030744517166     -1.19201618836099      0.05085192737418
  Br  6.07499878037377     -2.79710360924330      0.04155629996081
  C   5.77818572736878     -0.01452283629253      0.04700746689480
  O   7.10288136658409      0.21752769770907      0.04089551433940
  C   7.26751215291096      1.59332547293832      0.04183961723624
  C   8.44595048786282      2.22778057190989      0.04116761265841
  C   8.42526106814078      3.69439251632552      0.04385300218865
  O   9.44829286173642      4.35695523084765      0.04536639951784
  C   7.09531900519962      4.35710537332913      0.04506430962649
  C   5.93532289623127      3.68012403757063      0.04585535857415
  C   5.98091914040945      2.24606873397664      0.04537369613409
  C   5.07615050015837      1.23337892780187      0.04953480439617
  O   3.73534798092996      1.25905871857126      0.05476654253333
  H   9.39615090562739      1.71425960963439      0.03981415154675
  H   7.12086922847005      5.43888696799675      0.04586582922658
  H   4.97885399551589      4.18656249657523      0.04716320332687
