20
Coordinates from ORCA-job 20791optt
  Br  1.01440634852593     -0.27350749391812     -0.03994927731074
  C   2.86375665822315     -0.01605066999706     -0.08982402948759
  C   3.45554051091801      1.20534359919955     -0.05680340924206
  Br  2.42425291532749      2.76622241164219      0.07276301609126
  C   4.87556843185469      1.29662017831213     -0.10983717177049
  Br  5.71680659407514      2.98291373790086     -0.14252667286072
  C   5.63890377141302      0.15977307172574     -0.14530284734207
  S   7.38431218985834      0.42081604436482     -0.19510117026686
  C   8.02768583180741     -1.16334744982144     -0.13719937273651
  C   7.26828921886278     -2.25731659827478     -0.10462642205785
  C   7.65578403305753     -3.65683912507820     -0.06567516076797
  N   6.61990287360180     -4.42044055659976     -0.07126670350345
  C   5.47299557704635     -3.59911959610274     -0.11255683229703
  C   5.81457012070859     -2.28405941613507     -0.12872354622959
  N   5.05168805768985     -1.09178869287894     -0.14776866560832
  C   3.63680450063643     -1.24538607800958     -0.15848175820753
  O   3.14688135678641     -2.34664207248589     -0.20422318622194
  H   9.11087109152922     -1.19648631604731     -0.13274312832966
  H   8.67041308361310     -4.03115426641496     -0.03685527983371
  H   4.50156683446472     -4.05055071138141     -0.12929838201718
