21
Coordinates from ORCA-job 20794optt
  Br  1.22998215860914      0.12980876607972     -1.21618364115336
  C   2.89495288497854     -0.05319823576042     -0.35680590357899
  C   3.47858182413215     -1.25965792541646     -0.19048825093454
  Br  2.54579494131349     -2.85260470859715     -0.52191303757289
  C   4.88029332555823     -1.31745755064183      0.13051172816863
  Br  5.72931321774194     -2.94633994173315      0.51977172509675
  C   5.63700132143179     -0.18921639874316      0.05888624997026
  S   7.38032229360447     -0.26681620431392      0.24768169121637
  N   7.94311399597958      1.28365680465720      0.07401876510246
  C   7.16688387247457      2.27364342686955     -0.13028917664276
  C   5.72572502198282      2.26335543520112     -0.21712075349014
  C   5.00869791710825      1.08893058032685     -0.12200510511798
  N   3.62006996003599      1.12443498716883     -0.12395656952720
  C   2.93582556067830      2.35414699034752      0.20752225306455
  N   1.79917389480195      2.42807747983483      0.75909483931843
  C   3.68200949094995      3.54191562287300     -0.15833953505614
  C   5.01183878329693      3.49317745055349     -0.34355972001943
  H   7.65239363201614      3.24338281807321     -0.22925698456768
  H   1.39914258123297      1.53202388537420      1.01737879537240
  H   3.12128902839258      4.46528279580004     -0.16647024582371
  H   5.57359429368019      4.39845392204653     -0.54047712382504
