22
Coordinates from ORCA-job 207optt
  C   -1.82471487346571      1.84492724922021      0.00281085978868
  C   -2.10581081026871      0.50793478976908      0.03890457288574
  C   -0.43811180535605      2.11411642114895     -0.01077728702881
  C   0.31139584407960      0.96013493549876      0.05874908269456
  S   -0.66920137224022     -0.43949678955936      0.11477955986341
  S   0.54012398955478      3.53205052349734     -0.07433454715141
  C   1.96275913732153      2.60317045595014      0.00432534592220
  C   1.70263055959282      1.25737238879618      0.06809743656427
  C   -3.39731575345678     -0.23924791718987     -0.09319098022650
  C   3.37030000719069      3.15393174840028     -0.01549505371040
  N   -2.78069186265259      2.93836907792231      0.05359537800852
  O   -4.35363473747088      0.27227120606620     -0.71665006102898
  O   -3.43407012780610     -1.40387511936310      0.38850945735716
  O   3.92892602476504      3.19633551009988     -1.12775503035062
  O   -3.86474671945014      2.74292042286521      0.53449753601311
  O   -2.36944104143826      4.00561053943250     -0.36407916456474
  N   2.69992721121457      0.23484190749952      0.12961637959720
  O   3.89526988274831      0.52906686755144      0.10554787434533
  O   2.30813653789155     -0.90459116819735      0.20234581873018
  O   3.93167643214106      3.27247961768799      1.08929808477282
  Li  5.07702391437428      2.10272934178717      0.01915690787036
  Li  -5.16243043726879     -1.35105200888351     -0.30795217035210
