19
Coordinates from ORCA-job 20805optt
  Br  0.91891858596059      0.14817200376130      0.21501703760091
  C   2.79264080676450      0.19575533924738      0.07261130972631
  C   3.49663918459416      1.32204290722452     -0.16183709033184
  Br  2.58351661309956      2.95349506821926     -0.40727265319571
  C   4.94992080676607      1.29776611994696     -0.22508435607980
  Br  5.85612269314639      2.92920767702435     -0.47627255807415
  C   5.71649028339374      0.17884069116532     -0.10874925168108
  C   7.13652068122755      0.23719524283021     -0.16834881184954
  C   8.33656585141279      0.23520021720121     -0.20892018246769
  C   9.79767378700519      0.28559937780458     -0.26008729472244
  C   10.30031017126010      1.63961431980433     -0.50279939786930
  C   10.71453450399066      2.74327295855218     -0.70182450259678
  C   5.17490512159050     -1.18404627567444      0.07427931575449
  N   5.82765574280430     -2.26604460315374      0.12271678005354
  S   3.43619020973425     -1.38869160436107      0.28815909369127
  H   10.15722738515542     -0.38265487646257     -1.04682380027994
  H   10.20514537974211     -0.09030571909357      0.68219965314268
  H   11.08309883710018      3.72552716446467     -0.87867888073536
  H   6.82792335525186     -2.09894600850088      0.02171558991443
