20
Coordinates from ORCA-job 20817optt
  Br  1.11711708014785      0.18707838719895      0.22279605305853
  C   2.98598307293694      0.13500932789789      0.03818437811256
  C   3.70220878669939      1.32871034441386     -0.07537886490416
  Br  2.82207494489287      2.98712832146708     -0.08132130686013
  C   5.09142256204218      1.27756818774059     -0.17877208639828
  Br  6.12219329319914      2.84398085063929     -0.36901885292157
  C   5.74599792533517      0.05499558591244     -0.19191045873932
  C   7.24921846205743      0.01965554250081     -0.26634533887765
  O   7.86188197763127     -0.38467298659936     -1.20830937607067
  C   7.95178914793898      0.48740287786729      0.95146216121346
  N   8.47843801941665      0.81967086203800      1.91297460427077
  C   5.04249316562684     -1.14966583789154     -0.13568732006795
  C   5.81926347275621     -2.45108379753158     -0.21300808133725
  C   6.67594009684594     -2.62029754638204      0.95809344279971
  C   7.38683341688891     -2.69894619111213      1.91774860273661
  C   3.65876834416726     -1.09347907556435      0.01416403531169
  Br  2.68282813437918     -2.69857823411405      0.21560359629410
  H   6.44037109648824     -2.43549626759186     -1.11109019424622
  H   5.14230148139775     -3.29531597609736     -0.30388456904998
  H   8.01987551915166     -2.76666437479192      2.77069957567574
