21
Coordinates from ORCA-job 20819optt
  Br  1.16638875002235     -0.30341693473813     -0.11782880415733
  C   3.02739428561153     -0.09704228687005     -0.11877242348926
  C   3.66184845439018      1.07803673335729      0.14229163251803
  Br  2.70291306614830      2.65408226871473      0.47413457124754
  C   5.10033935639491      1.04191841016736      0.14691480969528
  Br  6.03216965552722      2.58613986115031      0.69292932037918
  C   5.79413196298743     -0.07967237951881     -0.17483948552072
  C   7.29167835983237     -0.12085528140665     -0.19941703124628
  O   7.96393946973837      0.55123622590258     -0.92502866307597
  C   7.96246693406588     -1.04506430433769      0.81481694622228
  N   7.48675087417011     -1.43224159450828      1.90135907278315
  O   9.28374998763310     -1.31059456547566      0.53548751481597
  C   9.55078383576293     -1.87253955013103     -0.66021195474625
  O   8.72840150346157     -2.31856190557709     -1.39770101557100
  C   5.10144640739648     -1.31560314099052     -0.54675508095056
  N   5.56228138441704     -2.42118065301178     -0.96170687280588
  N   3.71133183495515     -1.22579006911431     -0.39601993870887
  H   6.52481490070195     -1.11201129197662      2.01249196199509
  H   10.63033558825860     -1.87868780154490     -0.83122006913514
  H   6.57220354144628     -2.43648109237310     -1.07556418018949
  H   3.20962984707814     -2.07867064771763     -0.60536031005977
