29
Coordinates from ORCA-job 20824optt
  Br  5.00870974960050      1.20177779443645      5.46653909836984
  C   5.74395676130742      0.89868085933700      3.77322346295448
  C   6.96356205899220      1.35102816489810      3.38588309447714
  Br  8.02918910218900      2.32503229344223      4.59348870292076
  C   7.47948055273333      1.10709949684380      2.06408268829885
  Br  9.01993005207343      1.98944847779881      1.43585312896345
  C   6.75721922583266      0.31274091625229      1.21779129846091
  N   7.08660745502182     -0.03853937621447     -0.06951805477199
  C   8.39811494818464     -0.56644821132510     -0.47806249322989
  C   8.98207812331450     -1.55807108605913      0.53088954598810
  C   8.11677833926229     -2.81521357818833      0.60278113614111
  C   7.87572799005861     -3.36987492271809     -0.79367944652134
  O   7.31769827521349     -2.38807471859707     -1.65388236445539
  C   8.17712905964118     -1.27908008220779     -1.80683285996023
  N   5.55034236862253     -0.16897522875915      1.65405234298959
  C   4.91554138285881      0.10942641845788      2.86673786068848
  N   3.75461617650509     -0.31192418238774      3.17647687536130
  H   6.34358652592280     -0.54189825398656     -0.53583489826016
  H   9.09101366737871      0.25660683238248     -0.64114137741721
  H   9.08387226721353     -1.08957164225361      1.51074722869531
  H   9.98995995072243     -1.81966926335937      0.19570112237489
  H   7.15463774097572     -2.58154609459806      1.06712562466424
  H   8.59313870871734     -3.57627124015586      1.22268585844714
  H   7.17272790445786     -4.20124326662790     -0.78092129932891
  H   8.82186040675196     -3.72568597457176     -1.22428882802884
  H   7.70737510860146     -0.61163766255431     -2.52985717454100
  H   9.14704987129449     -1.60222297265048     -2.20360416182967
  H   5.06493664275529     -0.81373961527518      1.04786942656056
  H   3.32515958379680     -0.85015388135908      2.42769446198846
