18
Coordinates from ORCA-job 20823optt
  Br  1.20337891660451      0.02627883865952     -0.03590623955627
  C   3.07967010198361      0.05469513694837     -0.08989505937459
  C   3.75237730832323      1.27513125951694     -0.21299733463132
  Br  2.80118984926171      2.88019064235492     -0.38013788571150
  C   5.14987384632674      1.30062200451450     -0.20678681466763
  Br  6.11414879311411      2.90334337628713     -0.33023451961821
  C   5.84585677790321      0.10505638250742     -0.10503496143100
  N   7.26541390531033      0.15530209511806     -0.04800753641900
  N   8.05458976631451      0.16495274514156     -1.09559982585312
  N   9.24174017504879      0.18726919286868     -0.61240312525935
  N   9.17075817114088      0.19105369901476      0.72360471605042
  N   7.94000265443980      0.16947474565248      1.07856325236565
  C   5.20150808335717     -1.12894146668871     -0.03372854667982
  C   5.99690846062766     -2.40981766746742     -0.03265613693611
  O   7.19216211206947     -2.45691736968774     -0.01034076475211
  C   3.80637855513718     -1.13782088432467     -0.00575426289512
  Br  2.87982419487801     -2.77398704323816      0.18248085892684
  H   5.39321832815901     -3.32488568717763     -0.07616581355777
