24
Coordinates from ORCA-job 20821optt
  Br  1.20800776739832     -0.00392566264867     -0.25944556844339
  C   3.08260210972130      0.12572240580883     -0.07270538953986
  C   3.69428669539676      1.32253213283627      0.31563317120646
  Br  2.69422652818634      2.86750829441310      0.66342876226504
  C   5.08468305360744      1.31268542227028      0.42559787042027
  Br  6.02446333741202      2.82553573822040      1.02158667610756
  C   5.80697588850658      0.15490040081237      0.11376085618454
  N   7.21232730187070      0.08243358076372      0.12278589676228
  C   8.01578737933023      0.70619630459151     -0.94507331123872
  C   9.41748186796103      0.62978913803831     -0.31301478394406
  N   9.20122656226466      0.46967656613674      1.13465352472664
  C   7.98305824605535      0.17437607017100      1.28350425199376
  C   5.07125709461777     -0.97837766209004     -0.23380207305391
  C   5.75281278085644     -2.30743904323878     -0.47926791344322
  C   6.71147111141556     -2.27541315742540     -1.58112417614671
  N   7.46257875265373     -2.25483363645802     -2.44544448587586
  N   3.74944876409672     -0.97758312538126     -0.32025876447413
  H   7.69260181119429      1.73922398094622     -1.10365792807282
  H   7.92964230550154      0.14883553815654     -1.87443162301622
  H   10.01808833300381      1.51433583804398     -0.51428881426851
  H   9.96471385629103     -0.24249391729187     -0.67770752592229
  H   7.51508980630663     -0.04014976529374      2.23890048433568
  H   4.98218485743318     -3.04537205296585     -0.69613397979802
  H   6.29198378891834     -2.62016338841562      0.41750484323551
