25
Coordinates from ORCA-job 20827optt
  Br  1.83791116714262      0.79567670000079     -1.25735161373837
  C   3.50138989216892      0.41529565873981     -0.48878663979961
  C   3.87816062562743      0.79148216224931      0.77091987941218
  Br  2.67564011674859      1.73884511838053      1.86396085675607
  C   5.16183435257940      0.47716577277807      1.29047327511063
  Br  5.70746571431811      0.94857036924108      3.03131463312361
  C   6.05058715318970     -0.21308833297405      0.49157481177957
  N   7.31404643892023     -0.55365798966975      0.86817938986304
  C   8.07099441316758     -1.61807432350786      0.23256394063026
  C   8.59786155046026     -1.23400168047206     -1.11815064153719
  C   8.94386842696830     -0.01133270491330     -1.63457921878854
  C   9.38525289305628     -0.22248131844159     -2.96793774289100
  C   9.29118149760625     -1.56411423466100     -3.22221193522186
  N   8.80728113166254     -2.17017754343299     -2.09566969591623
  N   5.65196711398773     -0.57764671004669     -0.75146798851296
  C   4.41414006546459     -0.31492227326582     -1.34610420009646
  O   4.21167439908665     -0.69046510144474     -2.48004728150762
  H   7.53681881414841     -0.34313268741469      1.82708597192563
  H   7.45785188905793     -2.52453263073281      0.14345721527992
  H   8.89114354236683     -1.85872203773505      0.91062199490611
  H   8.87273502491084      0.92724808246198     -1.10976385943437
  H   9.72123806643907      0.52738370114939     -3.66351221850647
  H   9.51316545955179     -2.13382881987740     -4.10780786181598
  H   8.62825691054456     -3.15551458240282     -2.00270935188627
  H   6.33253334082533     -0.96797459400832     -1.39305171913406
