20
Coordinates from ORCA-job 20820optt
  Br  0.73709788536095      0.20797689775711     -0.08295387884910
  C   2.61730035366038      0.24525748927472     -0.02611504078586
  C   3.34205441084845      1.37994893624270      0.08196857373338
  Br  2.44020792721477      3.02924893254859      0.24150275376533
  C   4.79632530136954      1.34643269400790      0.10795731311265
  Br  5.69071823369990      3.01160154508802      0.09155710377074
  C   5.57094187023454      0.22955283487975      0.11302283867766
  C   5.02748201732756     -1.12201600569245     -0.06719950966421
  O   5.68695699043809     -2.12114819835073     -0.18373398969405
  S   3.26096160414671     -1.34253417618328     -0.14123712665760
  C   7.06799859150883      0.27501905741016      0.19629726914196
  C   7.71940028845996      0.86308490879223      1.42931927073570
  C   7.75389534869426     -0.60741155988410      1.21113613248526
  C   7.73022447945705      0.47238502838411     -1.06932070417791
  C   8.27818615416768      0.63369430079272     -2.12287621777348
  H   7.05128222007828      1.24880490841595      2.18687493318796
  H   8.61449172775739      1.44413599453730      1.26306607758855
  H   7.11100149356482     -1.22840328909952      1.81745961249401
  H   8.67460352855028     -1.07153728459904      0.89143103527905
  H   8.76286957346047      0.77290698567790     -3.05915644637005
