22
Coordinates from ORCA-job 20831optt
  Br  0.97572902804170      0.19207764330150      0.12458656390449
  C   2.81523508951231     -0.19340429443673      0.12023832182466
  C   3.32680938421355     -1.44859605454204      0.37702546593734
  Br  2.16612025469945     -2.88051817006263      0.75832118400859
  C   4.73144244897749     -1.66119572521743      0.34827248742928
  Br  5.44351307397189     -3.37046496691382      0.72214489438992
  C   5.63370381663811     -0.64412799712254      0.07803802593501
  N   7.01393374758483     -0.83283701115065      0.12064900614524
  C   7.91480115532591     -0.34973450167260     -0.81914795287342
  N   7.66721441351541      0.27191232127775     -1.89856787616797
  C   9.28711328332465     -0.61897784172165     -0.44355901054761
  C   10.40549444846330     -0.88102915948465     -0.11013307249039
  C   5.08027730146534      0.62896706838334     -0.15188438244041
  C   3.69953528591031      0.85818472371116     -0.14182939772961
  C   3.57187997713084      2.25833261016981     -0.37431174028837
  N   4.74804703095822      2.81526806508521     -0.50597110536633
  N   5.65844328236471      1.83862757947886     -0.36327149507136
  H   7.35548307778069     -1.56503330533534      0.72577977125272
  H   6.66865150484482      0.32972633501136     -2.09026869005985
  H   11.40945747803649     -1.10398365744469      0.16436565312028
  H   2.67142128318360      2.84657985919933     -0.43736464320577
  H   6.63569363405631      2.04222647948646     -0.50211200770645
