25
Coordinates from ORCA-job 20832optt
  Br  0.97418859745252      0.45387605588409     -0.35404831330419
  C   2.83409935812786      0.24774369849633     -0.17932887791868
  C   3.68036999847776      1.30321920673978     -0.06661522890085
  Br  2.95449243671913      3.04348252149414     -0.09061817938377
  C   5.11892419502054      1.19983933952893      0.07127102570784
  Br  6.15534227234428      2.76473067803260      0.35644824412590
  C   5.80276592691618      0.02536588113106     -0.00199103427081
  N   7.16636752824700     -0.04974402703973      0.08231417408314
  C   7.96993875540099     -1.17701628567284      0.08597521490035
  N   9.22054438662428     -1.05023640455661      0.13524477400612
  C   10.03189955438214     -2.24938172416118      0.14824525602143
  C   10.94614341312431     -2.23737759136179      1.36206877013352
  C   11.92291691547194     -3.37818386851973      1.38317840776625
  O   12.00656952186032     -4.21264762549361      0.52474674144963
  S   4.99759191957938     -1.49976828498535     -0.24680085594874
  C   3.25840069269250     -1.14934550047447     -0.14920638006772
  N   2.44393454161224     -2.11671849360811     -0.11639951832266
  H   7.67008277742187      0.82627861323808      0.14584685935455
  H   7.44809410806019     -2.13555454054674      0.04927003474746
  H   10.64873376529173     -2.26131697404602     -0.75266366630392
  H   9.43189981859524     -3.16738239060350      0.13970868653272
  H   10.37102679719275     -2.26435527179417      2.29381169510445
  H   11.51704050405636     -1.30353286014875      1.39895417444860
  H   12.59118827296796     -3.41274173621077      2.26525567145043
  H   2.89644394236041     -3.02823241532163     -0.09266767541109
