22
Coordinates from ORCA-job 20842optt
  Br  2.19565753031576      0.59046647176240      2.25151785180675
  C   3.43101269282712      0.33489974705284      0.85467111484069
  C   3.72841574080060      1.34412857350182     -0.05519156908818
  Br  2.91169665349215      3.02808882400746      0.03488159005116
  C   4.67321827636811      1.02809848033522     -1.04211464185897
  Br  5.18609280894723      2.30951727909357     -2.34036299106439
  N   5.25802560706992     -0.13810563890914     -1.14389975914412
  C   4.95879580629218     -1.09825293834484     -0.26915387223162
  C   5.67957612831523     -2.40266358369058     -0.48002694375662
  N   5.23871987980522     -3.41896147554283      0.44909749855048
  C   5.64701706232052     -4.59679163812724      0.27605384237986
  O   6.49900324983177     -4.92536067327799     -0.73629976298723
  N   6.85893965352336     -6.24564607584490     -0.96384534879626
  C   6.40484990854269     -7.11014208430363     -0.14913303092837
  N   5.59081660863807     -6.89897536056597      0.96793490487029
  C   5.23791299520699     -5.69173795650235      1.15683384676051
  C   4.04978331604910     -0.90245259738713      0.75384052398787
  H   6.75616387848026     -2.22713701147303     -0.37509785225481
  H   5.53210975602416     -2.71469318552963     -1.51916859007826
  H   6.69698727224193     -8.13086349196896     -0.35555734688022
  H   4.60381788303547     -5.42779694656514      1.99774138691198
  H   3.83038729187208     -1.69761871771992      1.44927914890945
