23
Coordinates from ORCA-job 20844optt
  Br  4.42261076510703     -0.83189125742472      4.88376363652224
  C   5.07574833798433     -0.63934396316161      3.13678368108376
  C   5.38712032639311      0.54989318680585      2.58779981051822
  Br  5.09504521170913      2.15392467546941      3.51389924245079
  C   5.99759026299387      0.56315219328633      1.25362827716143
  Br  6.81152851407392      2.17570893012985      0.66964319845642
  N   6.07564914496974     -0.40134599492456      0.44250269682866
  C   5.57037733539056     -1.66791685886320      0.65909098007246
  S   5.23638881778227     -2.17419487328955      2.35219331375794
  N   5.41903858270936     -2.45328106208456     -0.31610500165820
  C   4.91622732763843     -3.79376161590334     -0.15544331261661
  C   4.10693240099473     -4.19259349562122     -1.37920969540107
  O   2.88078544891373     -3.48277375737751     -1.41499429668893
  C   2.90141491364152     -2.23765589115076     -1.95421690148158
  N   1.94911656235745     -1.42678200260940     -1.88016791531894
  C   6.10032131051922     -4.73595579596211      0.05279273542159
  O   6.15636053000014     -5.84071965364242     -0.39874884443609
  H   4.27029315011531     -3.90284286447055      0.73168344139470
  H   3.86272077867049     -5.25073828180687     -1.33615672065045
  H   4.69530432205978     -3.99935175762021     -2.27966203171974
  H   3.82005787228382     -1.98650803866330     -2.48247563331469
  H   1.17616658930725     -1.82219905525082     -1.34351897995438
  H   6.92220149438477     -4.31582276586470      0.66491831957247
