22
Coordinates from ORCA-job 20841optt
  Br  0.72494464404029     -1.31373968519867      0.36395128393612
  C   2.57511629178573     -1.11096313926612      0.08727805012375
  C   3.23697178903338      0.08365074278384      0.37175110576328
  Br  2.33462265588554      1.57132822495559      1.06937340960988
  C   4.60925671651180      0.10453593315254      0.10172941256547
  Br  5.63078680953195      1.67035466194096      0.40568146955104
  N   5.28159311225973     -0.91468076610026     -0.37904177420463
  C   4.63993498722815     -2.04961798046033     -0.61724165719908
  C   3.27415117754855     -2.19471186627859     -0.40867610780895
  N   5.39964567117372     -3.07855654833104     -1.19221517756602
  C   5.64321479679443     -4.13540301528358     -0.55843428499246
  C   6.30766578653349     -5.37485628677808     -0.97554596944921
  C   5.46185528677305     -6.38495485801353     -1.19963288146539
  N   5.49958280978981     -7.46192696451122     -0.28407379349084
  C   5.48956786871759     -6.95872645947200      0.89286409832595
  C   5.21865179246097     -5.51191850474871      1.34283348921232
  N   5.20685052060130     -4.35323847755832      0.80256611153712
  H   2.77536558651473     -3.12705891016377     -0.62662122462375
  H   7.17023450184371     -5.61599079173762     -0.35907143616933
  H   4.56760977661300     -6.31261643786676     -1.81010086514528
  H   5.50027372794720     -7.64959428003873      1.73356723662022
  H   4.87010369041182     -5.51831459102557      2.37705950486978
