23
Coordinates from ORCA-job 20846optt
  Br  0.97901553241992      0.14279327574101     -0.06837039543455
  C   2.83480899165869     -0.09002603081732     -0.05175290987844
  C   3.45872331273057     -1.29391939965867     -0.05029267383777
  Br  2.52903977543143     -2.92489657251521     -0.06942163078372
  C   4.88293817390074     -1.31097276953987     -0.03549535851906
  C   5.61202776080206     -0.16451091999740     -0.02613933804896
  C   7.04229890593693     -0.07894809513307     -0.01386170229286
  C   7.74078175178467      1.11221113483807     -0.01031258550485
  C   9.12331163799334      0.79068103939273      0.00034253738606
  C   9.21388429397679     -0.57562008236615      0.00269157327220
  N   7.95022482432313     -1.09857415703417     -0.00554421934601
  C   7.06146704207760      2.41236913626056     -0.01740541337475
  N   7.63806308901581      3.55349602523408     -0.01284286010872
  C   5.60542027364387      2.30990113273475     -0.03068353339348
  Br  4.62505032058661      3.92226828213229     -0.04509991846083
  C   4.93520634190313      1.12586464947632     -0.03254460445487
  N   3.55477132976132      1.06162448380912     -0.04136331873233
  H   5.37434303417704     -2.27559724220294     -0.03231444762597
  H   9.95678739802384      1.47281705572218      0.00511032792279
  H   10.07720229834007     -1.21896964896812      0.00909667264288
  H   7.73441384779503     -2.07990513898001     -0.00579516514577
  H   8.64983764740981      3.44210530446061     -0.00349146694805
  H   3.06038241630757      1.94580853741122     -0.04250956933293
