26
Coordinates from ORCA-job 20847optt
  Br  1.20307281410843      0.01928841945940      0.68569272347854
  C   3.07292591079905      0.05204147734373      0.44038750423743
  C   3.87652390361657     -1.05320312899546      0.70748064108150
  Br  3.16651378174617     -2.67051182531012      1.36431280620654
  C   5.24254598163616     -0.97069745828833      0.49504253387400
  C   5.82602776597023      0.19805948097105      0.01649231216644
  C   7.31630610828268      0.22711013168080     -0.19368951034368
  C   7.90594654918684      1.51122730367445     -0.80432519691862
  C   9.32762511116711      1.58612421193228     -0.24208892362361
  N   9.20641641710708      0.86086340534815      1.00749931174876
  C   8.12196928092115      0.05599874925188      1.10929931330124
  O   7.84831035107764     -0.68110494004866      2.02360616642507
  C   7.07575945868225      2.72454037947357     -0.40893356802960
  O   7.55172921395137      3.69728249404236      0.11056089222269
  C   5.60774693942147      2.60958225938076     -0.73526206606972
  C   5.02284896747029      1.30840860369126     -0.23657640819904
  C   3.65304670461123      1.22150167115534     -0.02166194373822
  H   5.86744887359085     -1.82314188273147      0.72432337219106
  H   7.60032575932529     -0.63099767960342     -0.81194964357822
  H   7.89750897980090      1.46738791637622     -1.89584604726214
  H   9.61986317727084      2.62061537197014     -0.07185184574728
  H   10.04527739322065      1.10912802966610     -0.91422934705927
  H   9.91544610248027      0.85393898027837      1.72243613256108
  H   5.50543084214190      2.66579058871984     -1.82553804742343
  H   5.08761897391482      3.46561220897202     -0.30892203623656
  H   3.02276463849861      2.08015523158969     -0.21425912526495
