21
Coordinates from ORCA-job 20849optt
  Br  1.12931161186241     -0.24410537012610     -0.05522167618005
  C   2.95987600116600      0.07423683498858      0.08926879396453
  C   3.56530901555970      1.26107417842778     -0.00243868650937
  Br  2.62410563095509      2.85557501356862     -0.30433308029667
  C   5.01500492452601      1.33607338747511      0.08448590788881
  C   5.70387504314517      0.17433838305964      0.10189734273417
  C   7.12890211228200      0.00945908149016      0.06451336573782
  C   7.70870244260124     -1.21464619592701     -0.02228672244941
  N   6.99429144783840     -2.37403017965113     -0.07405417548665
  C   5.62079645769418     -2.29330991844662      0.02109933968950
  C   5.00974199840757     -1.09798180011800      0.12727443621844
  O   3.64125051762845     -1.08284963563354      0.35234406826357
  C   9.15787979497674     -1.03490628600245     -0.05728395839011
  O   10.03131711088303     -1.84931315786599     -0.13431594676348
  C   9.35723619821462      0.52061290554424      0.02993722876826
  O   10.39312194341894      1.11157720029482      0.04028642257302
  N   8.07995362874511      1.03630102484569      0.09115619712414
  H   5.49343436199574      2.30370842682655      0.06678919421901
  H   7.47445579303070     -3.25743968014121     -0.08865753880693
  H   5.06245487010780     -3.21655458523343      0.03874111019156
  H   7.87097909496096      2.01718037262431      0.16979837750980
