22
Coordinates from ORCA-job 20850optt
  Br  1.57900767298901      0.16226277105413     -1.91963201383396
  C   3.11191369774207     -0.01720399235126     -0.84252206291244
  C   3.78341055368791      1.09575341907876     -0.33544755545355
  Br  3.21169223849361      2.85085457987386     -0.70013736733360
  C   4.92597695569643      0.93817517088243      0.44730428119701
  C   5.35423199808307     -0.33993421745354      0.72197650915311
  C   6.59537584064681     -0.84976454410192      1.40700798620386
  N   6.30445272907570     -2.23643548676739      1.75638298095365
  C   5.47578773606466     -2.67002319429298      0.63303801144629
  C   4.68164973292523     -1.45186862831329      0.22421619669119
  C   3.56814078212032     -1.30793726553102     -0.57296954750909
  S   6.79261174788057     -2.95282015648566     -0.62022924962207
  O   6.29325701988984     -2.74304440532886     -1.94531829524814
  O   7.56328502480351     -4.10471899239578     -0.27118221744282
  S   7.86464190806890     -1.09795687831211      0.08623111942822
  O   9.12569327170187     -1.46048940595003      0.65174342561760
  O   7.74097386983988     -0.07997352257870     -0.91309696884354
  H   5.45757672830013      1.80928428297977      0.80467170084031
  H   7.04641695695687     -0.26937216394838      2.20817001125862
  H   5.82665682686066     -2.31967777527502      2.64582902420503
  H   4.95782141815869     -3.61268842647305      0.79351525186999
  H   3.05542529001420     -2.15842116830994     -1.00055122066568
