20
Coordinates from ORCA-job 20859optt
  Br  1.49827419307702      0.83276907321024      2.35549587210663
  C   2.86885625086899      0.32268684673958      1.17373680926444
  C   3.42545890934942      1.21811734512894      0.25778131769920
  Br  2.87343966803288      3.01135280442753      0.15427472284199
  C   4.42293072647455      0.78357105288971     -0.60156665836113
  C   4.87202083801839     -0.53039931091242     -0.56449996302963
  C   4.32379523360413     -1.42224781869763      0.36177665015362
  C   3.34104637002673     -0.97672670506021      1.24081220956444
  N   4.78466992469437     -2.72713864798928      0.54603992534060
  C   5.20908189299827     -3.48855752542386     -0.35759921651215
  O   5.25363732988637     -3.32907191391823     -1.70522839288686
  C   5.59233058213140     -2.15863010572653     -2.36659258632018
  O   5.57715015564520     -2.14988843437889     -3.54417379814126
  C   5.93754978711959     -0.96910321734135     -1.49483608710246
  N   7.05181128849697     -0.42022004197549     -1.70398462482802
  C   5.66664501295178     -4.81552294364144      0.01180672624065
  N   6.03263780218023     -5.85874424206447      0.30770613248697
  H   4.84527064373765      1.47342911575859     -1.32079974730292
  H   2.95222283750601     -1.66445228799501      1.97841636094991
  H   7.18617055320002      0.38577695697023     -1.08956565216383
