20
Coordinates from ORCA-job 20866optt
  Br  0.80964283281971     -0.60177314277625     -0.29955014323184
  C   2.66742047516145     -0.35621897532753     -0.17748383026164
  C   3.55243699441221     -1.37899718948924     -0.06041458676731
  Br  2.96695401989954     -3.17537675586960     -0.01826693567563
  C   4.96549140895810     -1.18162380668959      0.02188832769609
  C   5.54310016151891      0.04188774915973     -0.00234019814234
  C   6.93594504497936      0.40232022649846      0.00468481225881
  C   7.00856992635684      1.75380498099043     -0.11347781907285
  C   5.67821017305009      2.32401326540360     -0.16514938653818
  N   5.46562914137028      3.69061190929703     -0.35959466452575
  C   4.57184846104790      4.31578428152285      0.23335090268654
  O   3.69749012935844      3.89661905948761      1.19396920821958
  N   2.94638771471058      4.99734055906731      1.56303902891179
  N   3.29050253173064      5.97050158954632      0.91271104744833
  O   4.29857792680508      5.63730323672082      0.04344371232967
  C   4.78291175927850      1.29188848437731     -0.10098902121837
  S   3.07113800512115      1.31316358408035     -0.21330180383725
  H   5.58872899452428     -2.06453480156249      0.08897830662783
  H   7.75381514182449     -0.29651887737172      0.07543533037829
  H   7.90419915707241      2.35580462293459     -0.15993228728578
