25
Coordinates from ORCA-job 20867optt
  Br  2.85595320514149      0.05017225666920     -2.75232056708338
  C   4.11294742591735      0.46966869946321     -1.42609341457909
  C   3.80199385620855      1.02060358496476     -0.22823049046265
  Br  2.06086203449819      1.50991755111573      0.26836072157754
  C   4.86109770627162      1.11612706216461      0.72864331083627
  C   6.13497854554124      0.81290790851135      0.40764421115670
  C   7.27082580491965      0.71042876678157      1.31357646552342
  C   8.04215580232360      1.76811832137070      1.61715930614495
  C   9.34315214505876      1.41972476276695      1.09799441675188
  N   9.79403516378028      2.13747403158198      0.14430943714411
  C   10.06560385113167      1.48081079556841     -1.01213297645252
  C   9.16914368932787      0.67845254015207     -1.68364828910247
  C   9.79067282289543      0.15729362853399     -2.93355223149071
  O   9.24710113708935     -0.52927304787698     -3.76150329345802
  C   7.72243506729579      0.40232254306009     -1.65572940504670
  C   6.53175110513225      0.49037579539911     -0.97763685220381
  N   5.39046471160754      0.14526948835177     -1.73748480731290
  H   4.61365124657582      1.36702617269620      1.75243956410391
  H   7.74419712656740     -0.26857448720258      1.28255557182275
  H   7.69732577145748      2.78947605594191      1.52595089696313
  H   9.67266710646498      0.38362009297386      1.22335522079795
  H   10.99781686274308      1.71675181936839     -1.51702608232207
  H   10.84872946154146      0.44392321482422     -3.06909974214007
  H   7.51657375780318      0.01472999741134     -2.65202406856822
  H   5.55386459270589     -0.24834755459190     -2.65250690260002
