26
Coordinates from ORCA-job 20870optt
  Br  1.42970175945147     -0.10794433431350      1.93359096146544
  C   3.09277074510661     -0.18905354552688      1.04495506120051
  C   4.05869851631001      0.80461189952458      1.20435789862840
  Br  3.78556995562239      2.28478024206234      2.34285644104397
  C   5.26534472079846      0.72110530242527      0.51949727492989
  C   5.49272814459163     -0.35809531048467     -0.31180835677310
  C   4.54290347063999     -1.36508495396964     -0.45314248610203
  C   5.04107777066565     -2.46607302286238     -1.34553703554407
  C   6.49678185780187     -2.07728875305248     -1.59208983169706
  O   7.34354936744657     -2.77523900184993     -2.06495139095134
  C   6.71595300956096     -0.60894408340469     -1.15431173122386
  C   6.71471012050737      0.26512044737338     -2.42420021478085
  C   8.01196410961368      0.04110216746782     -3.17479415532988
  O   9.13733891481571      0.23939090130191     -2.31744667341531
  C   8.97914641579944     -0.07131407365536     -1.02262864261333
  N   7.94399655195204     -0.45205150457058     -0.40785905098995
  C   3.33787616505707     -1.28252478229383      0.22135995227348
  H   6.01987889170848      1.48505377426339      0.65668903864868
  H   4.98743318053789     -3.46046689017848     -0.90107093395778
  H   4.51850442844435     -2.51004657759105     -2.30562954946422
  H   6.62741589701400      1.30933269765545     -2.11538010630436
  H   5.86193343388774      0.03404051114874     -3.06587319008621
  H   8.13170645846341      0.75086879918018     -3.99059443948982
  H   8.06786447448818     -0.97418453452382     -3.57000422093260
  H   9.91059437777715      0.06902868735764     -0.48319647598373
  H   2.58555726193775     -2.05412406148340      0.12521185744915
