28
Coordinates from ORCA-job 20875optt
  Br  1.06272444396045      0.01731131303810     -0.28212313479818
  C   2.93877433101039     -0.09977696916949     -0.15276030979513
  C   3.61193481479604     -1.31647605626294     -0.21284257067876
  Br  2.70902240931581     -2.95640985494761     -0.42636076494354
  C   4.99805661345793     -1.33316514948449     -0.13438990918579
  C   5.71400753699177     -0.15487346444132      0.00793943937785
  C   7.21623388316930     -0.16783199278453      0.10818693966897
  C   7.66153184342245     -0.36754570687822      1.57311281672494
  N   9.09378406381823     -0.33138584742172      1.74429838579450
  C   9.87715013529974     -1.40309497877333      1.38690685531298
  N   11.12135911045958     -1.44043542901751      1.15551589359397
  N   7.77355272312915      1.05164104642638     -0.44920974753784
  C   7.22091369723133      2.29084741897143     -0.34286474529651
  O   7.79719693623454      3.29598719048853     -0.69371404312697
  C   5.82659870800606      2.33335100606814      0.25517395547085
  C   5.04244088845861      1.06219544400019      0.08207973148919
  C   3.65870631586370      1.07782861115335     -0.00490421679124
  H   5.51607797437334     -2.28207109741979     -0.20156099609793
  H   7.61067164275245     -1.00023628012641     -0.47932972167483
  H   7.28353244797058     -1.32624423575036      1.93490197673528
  H   7.20958697482413      0.41105608686634      2.19137134997470
  H   9.53064594233171      0.57843273386853      1.71178915915122
  H   9.31016267600074     -2.33543284674525      1.33967832677018
  H   11.55391062610551     -0.51823566785153      1.22282568391912
  H   8.70969215668781      1.02853940075035     -0.82587393103931
  H   5.31500875282748      3.18823210698342     -0.18302750946112
  H   5.95015750728070      2.55682196820448      1.32080359730527
  H   3.12356484422038      2.01797125025527      0.03437748913813
