26
Coordinates from ORCA-job 20872optt
  Br  1.73147577175052     -0.53361395670703      2.75189552148608
  C   3.04314104490326     -0.20733901595284      1.44170702627464
  C   3.45560022865380      1.08121794819751      1.10510718397906
  Br  2.73180151448853      2.61885704936086      1.91657105365913
  C   4.42865644572733      1.23794392624939      0.13874841605592
  C   5.01918840277816      0.14155524331587     -0.49477633991865
  C   4.59211748179391     -1.15340429500390     -0.17725823179500
  C   5.06388799368009     -2.42951766737300     -0.83245568761147
  C   6.13503787120740     -2.24920243863632     -1.88158247537020
  O   7.25456506163760     -1.61341315300829     -1.29335229801875
  C   7.38018063857733     -0.25764529894908     -1.60106720689876
  C   8.01702488374205     -0.02591213268169     -2.97635760273114
  C   9.33697463823825     -0.64328803320362     -3.05894223663636
  N   10.37469824505538     -1.12413357518118     -3.11945278925028
  C   6.06912088507959      0.53091710603086     -1.49945980063980
  O   5.94257243474251      1.53973225902454     -2.14727826625162
  C   3.60503854396034     -1.29326525169574      0.79546434571142
  H   4.75031228348826      2.23214121432793     -0.13887573005300
  H   4.20304730665465     -2.93964753427717     -1.27367800459749
  H   5.45573763803696     -3.08986284533025     -0.05475267202518
  H   5.75785629720090     -1.66779581592434     -2.73194120569198
  H   6.46160832237666     -3.21605211142531     -2.26448131975226
  H   8.03724639270146      0.16615029376561     -0.83423343153094
  H   8.10259805486659      1.04354125372535     -3.16269244443269
  H   7.38119640649348     -0.44114030637582     -3.76082255148565
  H   3.25831521216486     -2.28582286227232      1.05396674752496
