22
Coordinates from ORCA-job 20873optt
  Br  1.52521472237155     -0.64069844140403     -1.12068214771786
  C   3.17376243395672     -0.12567308309708     -0.42563991058062
  C   3.36965096620737      0.79479365159158      0.53297455813967
  Br  1.96787143502216      1.72412693629606      1.35496937101638
  C   4.72406269569211      1.09631954108210      0.91420124934271
  C   5.74061528362358      0.43303035179171      0.34643934753158
  C   7.20171306490892      0.58771323317643      0.42728292860547
  C   7.92142360523869     -0.47763367360028      0.80257952188925
  C   7.34392239140147     -1.50400449606688      1.71127046777734
  O   6.60182261738183     -1.23203745715198      2.61595310175511
  C   8.80178762413696     -0.96725077019843     -0.29155903587886
  N   10.02282972299342     -0.85105363513250     -0.55424924600264
  C   7.85172027102181     -1.66525553002711     -1.31157308511150
  O   8.31367458052332     -2.43780933186123     -2.10926623573655
  C   6.37748760000634     -1.42758292241786     -1.30013557286797
  C   5.49687096662105     -0.60793205457596     -0.64781595619458
  O   4.18429916969087     -0.78649537916731     -1.01185410813834
  H   4.90301808650804      1.86169817075286      1.65710260624345
  H   7.62820505171896      1.26690442186004     -0.30826406116276
  H   7.65424124433251     -2.54666837471035      1.51544802127159
  H   10.51363983689781     -0.35586250806372      0.19146200302870
  H   5.90116662974441     -2.08062864907606     -2.02264381720957
