22
Coordinates from ORCA-job 20881optt
  Br  1.37769105575290      0.27887506951613      1.07119514725628
  C   3.05227468136713      0.36569177754567      0.25229826691432
  C   3.80580106082736      1.49751084992978      0.15111609955762
  Br  3.22055440147471      3.16275385131886      0.78268487657669
  C   5.13507457670374      1.37344173051710     -0.33627618369598
  C   5.57584266230409      0.18469543757114     -0.83369827862759
  C   4.67055655305209     -0.92653585617057     -0.97538870399662
  N   3.50062546566695     -0.80804885601697     -0.26989496689171
  C   5.10330704729210     -2.08027746957418     -1.59630553414953
  C   5.57976105639091     -3.10095706093859     -0.65068957865050
  N   5.02257831292484     -4.04962485462344     -0.03177524914927
  C   7.02217456236291     -2.71935077480326     -0.22487475101761
  O   7.71525577036487     -3.45063719480293      0.42452109646307
  C   7.59078845484328     -1.35189026200878     -0.57419574588757
  C   7.01960358243246     -0.15634237753672     -0.85586674741450
  C   7.90277896859575      0.97149034953121     -1.01730426244818
  N   8.56496957122224      1.90046448416712     -1.13773989200405
  H   5.81962004450462      2.20110643237420     -0.18598665928738
  H   2.89307149695722     -1.61747609874411     -0.23410714960754
  H   5.91026923855132     -1.82412913293905     -2.27177540316110
  H   4.07934410286255     -4.19673415023244     -0.39336961248334
  H   8.67105733354585     -1.35902589408015     -0.48256676829549
