22
Coordinates from ORCA-job 20882optt
  Br  1.04685819205572     -0.25341003250658     -0.18545133804537
  C   2.90239357500714     -0.04052706312657     -0.08597886655364
  C   3.54502452092075      1.18379169665278     -0.05824775900893
  Br  2.57395652919340      2.79365616112617     -0.13963782386957
  C   4.94512246083031      1.23914607472071      0.02545077500480
  C   5.67026814665985      0.07238161580857      0.06575247007666
  C   4.97040266057273     -1.19051163571560      0.02287207120646
  N   3.60931272783013     -1.18144093025152     -0.04319182070007
  C   5.92070297368219     -2.19140053723746      0.05809336834101
  N   7.15345211489293     -1.63532198143305      0.11565837157325
  C   7.04427510070041     -0.30991554780693      0.12464742755891
  C   8.19070075318970      0.58828031926284      0.18261542393554
  N   7.93226371814921      1.90272602562794      0.29056104668888
  C   8.98645568198523      2.68752561399504      0.34537565954559
  C   10.26898436411226      2.15660876200839      0.29014054499392
  N   10.45623229684466      0.84914723339406      0.17768322489560
  N   9.41684661759485      0.05349638738844      0.12286150750598
  H   5.44227095431004      2.19862955042413      0.05868810910506
  H   3.10257703566172     -2.05638756731497     -0.06668094356851
  H   5.78163635025679     -3.26076707581346      0.04276788605679
  H   8.81750462413449      3.75548037188222      0.43535276782524
  H   11.15775860141546      2.77181255891484      0.32966789743236
