22
Coordinates from ORCA-job 20892optt
  Br  1.11473784016233      0.22693855147154     -0.03799772783799
  C   2.98155259667471      0.08081271532079     -0.04507819945199
  C   3.66144555924816     -1.14232422367718     -0.04184750000898
  Br  2.72536684471589     -2.77611586823355     -0.02501673244967
  C   5.05359433618055     -1.15691146137455     -0.04981753096391
  C   5.75386601422062      0.03521298862734     -0.05843017292058
  C   7.10602533484629      0.44059853018578     -0.06485818964474
  N   7.19137319885224      1.76796557946978     -0.06817428523223
  C   5.94071041112782      2.27718294281765     -0.06477256044583
  N   5.76989076166046      3.67692820210005     -0.06526119663411
  C   6.77745935822395      4.60327755935963     -0.06221882647919
  N   6.34494301760910      5.80708734439832     -0.06280887787486
  O   4.94349533333980      5.68128595893356     -0.06645702728505
  C   4.59745784076291      4.38141362368565     -0.06788552175776
  N   3.41185457198871      3.91083246579392     -0.07102631935369
  C   5.00162342576750      1.26793125840988     -0.05878536725745
  N   3.64163441050338      1.22835556761747     -0.05342645389838
  H   5.56833350538049     -2.10990496049379     -0.04835437234751
  H   7.98659807371830     -0.18191986043866     -0.06626673432041
  H   7.81776166352685      4.32371989156092     -0.05949021147944
  H   2.71959257733807      4.65059445726466     -0.07277638755937
  H   3.18868332415184      2.17603873720078     -0.05724980479687
