24
Coordinates from ORCA-job 20898optt
  Br  1.19707847172288     -0.27135139078403     -0.32883684518726
  C   3.06851583656195     -0.11781041540697     -0.15416120282555
  C   3.70851472032650      1.14615783246150     -0.20227927734992
  Br  2.72057073173970      2.73771870525512     -0.43558569560608
  C   5.07382731078227      1.24933381991971     -0.07633620873776
  C   5.81954539545328      0.07675698923666      0.08973917483899
  C   5.16948214023364     -1.16472432545964      0.13981433487337
  N   6.14694591455677     -2.09364120209028      0.31006393115699
  N   7.36810627568164     -1.53889197970406      0.37277995542467
  C   7.20316719685641     -0.24677435333484      0.24370316147925
  C   8.39237013109372      0.66515075688295      0.19599472864772
  C   8.73015282500666      1.04838858147519     -1.26550933668735
  C   9.92516236680202      1.87718692708680     -1.35753189929003
  C   10.90975198839588      2.55636448183719     -1.39510136564426
  C   8.14620053724657      1.86935964584558      0.99897540863197
  N   7.91323114056191      2.81273788546576      1.60560087242641
  C   3.78348609311403     -1.28015359115320      0.02245578750814
  H   5.54867589267061      2.22135370375251     -0.09259359583473
  H   6.05533419806982     -3.09003752411858      0.40135902533277
  H   9.24504412576341      0.13828458192263      0.62686709543897
  H   7.87751606260838      1.56866682208951     -1.70731578655832
  H   8.87128584413095      0.12006986721591     -1.82113207264075
  H   11.78158815189717      3.16506195898856     -1.43345413909145
  H   3.27744664872374     -2.23420777738401      0.06348394969421
