21
Coordinates from ORCA-job 20901optt
  Br  1.12864204642175     -0.34936362470517      0.25942263074091
  C   3.00159265750727     -0.14311956144505      0.16372080603503
  C   3.60818423594846      1.12195242140639      0.19549595864201
  Br  2.55711772930628      2.66378941272918      0.38862179461484
  C   5.00664362025297      1.20482794189724      0.11598521008806
  C   5.68007881405342      2.51072316114988      0.04064445830800
  C   5.49007536001896      3.58686954043296     -0.79573364643123
  N   6.38526251295667      4.54572786617465     -0.47437713730363
  N   7.10793336401832      4.13216666440722      0.51559572486694
  N   6.69847147113857      2.91736828232091      0.83300387010145
  C   5.72458626493939     -0.00074912301970      0.05206768783563
  C   7.22715845675083     -0.02742531583248      0.01734113647668
  O   7.88448892735117      0.47519684105730      0.88741790262588
  C   5.01055719946722     -1.19414536339250      0.02533975075365
  C   5.69223636455514     -2.52071255750449     -0.02854372899395
  O   6.88182284395700     -2.64663518703485      0.06630114280319
  N   3.68498993732902     -1.25629988006003      0.06917956523482
  H   4.77505829430029      3.71429171670798     -1.58977504460254
  H   7.19165072530355      2.37311664847548      1.52768947504708
  H   7.69551351416816     -0.51065797517140     -0.85025406671062
  H   5.00693566025550     -3.37392190859354     -0.15614349013219
