21
Coordinates from ORCA-job 20900optt
  Br  1.20576581130076     -0.22390250267169      0.21531888260110
  C   3.06378268006989      0.00032972992734      0.13317349918826
  C   3.68898759419725      1.21252020211840      0.15961033512799
  Br  2.68424269045776      2.78380989152846      0.40793528472984
  C   5.13430765962408      1.25225986347773      0.11062791623668
  C   5.80962774185469      2.55260937298048      0.03733164115602
  C   6.85294974478825      3.06232701869099      0.76469775977617
  N   7.03350790257611      4.28420455478496      0.24322156132295
  N   6.18332003331061      4.52590670643526     -0.75963091383971
  N   5.43651820014829      3.49099433085180     -0.88176872945021
  C   5.82100971817031      0.06788145681261      0.10729496609775
  C   7.28798875527816     -0.13155498926397      0.07698929252980
  O   8.17179949829593      0.68487111198567      0.17001217063592
  S   7.60679654683511     -1.87875280216013     -0.07934915920660
  C   5.90971638991249     -2.29624989666900     -0.05905821221653
  C   5.13263048156227     -1.20629834807037      0.04640073969047
  N   3.74644572838940     -1.16291875282987      0.05651140593222
  H   7.45815379885456      2.65635511306270      1.55307206311128
  H   7.71549440859926      4.98146199253378      0.49332592530535
  H   5.59215117819244     -3.32204225814366     -0.14710080215618
  H   3.22380343758231     -2.02181179538151     -0.01761562657259
