20
Coordinates from ORCA-job 20913optt
  Br  1.03962021286878      0.67490715315866     -0.38449515812081
  C   2.83483207131435      0.13336748853489     -0.26097789160112
  C   3.89026297698165      1.02745956989732     -0.44574817502542
  Br  3.60924430653774      2.83994145489264     -0.86225482536893
  C   5.19252556148346      0.57490037394671     -0.31511157662919
  C   5.45953204717419     -0.75762585602644     -0.03642137184869
  C   4.40002687262748     -1.63883629497082      0.13892155399894
  O   4.54185639195389     -2.94531192375235      0.55660385511746
  C   5.53232032659663     -3.80789908453824      0.24177593391303
  O   5.52788291457879     -4.90690598235832      0.69831600820091
  C   6.60757621080959     -3.39033553242904     -0.73062480017655
  C   7.02276707183289     -4.47941072114690     -1.71893664500034
  O   7.73179757840326     -4.23259824878300     -2.64318673248910
  N   7.21023231211409     -2.28729812573655     -0.75314585590226
  C   6.87613701998970     -1.20602260555953      0.08782283576338
  O   7.69685176639391     -0.64948082937550      0.75357997388829
  C   3.09280723707691     -1.19517714617413      0.04003106251621
  H   6.02099283089129      1.26052270378321     -0.43299183647132
  H   6.61142537906673     -5.48113238470825     -1.52184963528911
  H   2.28430891130458     -1.89106400865432      0.21369328052460
