22
Coordinates from ORCA-job 20912optt
  Br  0.99311705220014     -0.22825457576991     -0.03882092361065
  C   2.86408717311367     -0.09015837252549      0.08826807424192
  C   3.51734987917901      1.14807837112225      0.06643411870558
  Br  2.57959423553417      2.77206180592865     -0.10965870982758
  C   4.89414891172496      1.19273645184032      0.16625677637046
  C   5.63426601307897      0.01755812326779      0.27491119683999
  C   7.08011617443487     -0.01489324782610      0.37237487124303
  O   7.65754011162053      1.19828284701808      0.38072445386463
  C   9.06671457797793      1.22946593592489      0.47496729158700
  C   9.49256212265137      2.62863107671659      0.50505578487232
  N   9.86461594208981      3.70972455575544      0.53124435226747
  C   7.72972757688186     -1.19363896792243      0.44072993788918
  C   7.00472974466804     -2.45651637557331      0.43074142531234
  O   7.50771570915044     -3.53842420343183      0.47717140535742
  O   5.63023406038969     -2.38485341365549      0.36524076000702
  C   4.97142694649423     -1.20726594775144      0.28234967947926
  C   3.58906826830878     -1.26275945315406      0.19919937894645
  H   5.40639259071768      2.14443263239003      0.15655038064718
  H   9.52286092432110      0.73407019065807     -0.38648419677346
  H   9.40345849555321      0.73322444345936      1.38920723492263
  H   8.80156908040982     -1.29251226325673      0.50494524894176
  H   3.09570440949964     -2.22398961321468      0.21459145871605
