23
Coordinates from ORCA-job 20921optt
  Br  1.51198435540864      0.87070496172444     -0.05324514593856
  C   3.26320522196904      0.24205776586754     -0.00124860997794
  C   3.64472090519250     -1.05004809891938      0.05458778692270
  Br  2.39044254602719     -2.44779827633383      0.07016509790583
  C   5.03902735526607     -1.40892085111257      0.10529925852197
  C   5.92480939289602     -0.39514528572517      0.09102362837811
  N   7.27783242748433     -0.25198039534710      0.12459607069372
  C   8.45449945621182     -1.00892607577431      0.19074074624046
  C   9.43865391696012     -0.06898204832599      0.17798440615405
  O   10.78686588176984     -0.10213643974592      0.24250096847957
  C   11.24547327192434      1.22939147923027     -0.08079837562871
  C   10.06499261827310      2.20909084790140      0.14508621760409
  C   8.91539747445412      1.25580327948594      0.10091040865014
  C   7.56352629430121      1.12056425221523      0.07167645981453
  N   6.39248173579235      1.87673674756116      0.00953211648119
  C   5.46540089444418      0.99492094854508      0.02238348780135
  O   4.15306134752961      1.26362516532165     -0.02210105399466
  H   5.32116873538183     -2.45054387663628      0.15063126883881
  H   8.45582584028959     -2.08133395261571      0.24067571077329
  H   11.54968237434614      1.22872904428979     -1.12934507520551
  H   12.10945234790590      1.43788317744253      0.54531262294315
  H   10.03848468227071      2.97690633495464     -0.62616269028500
  H   10.13901092390127      2.70540129599661      1.11479469482740
