25
Coordinates from ORCA-job 20926optt
  Br  1.44801900915820     -0.97219818509106      0.86205177571146
  C   3.30767460990673     -0.76111706494061      0.64550440184359
  C   4.09150448760455     -1.69922772660511     -0.01732945415089
  Br  3.35823888302582     -3.27158043281824     -0.75407034104370
  C   5.45612992700893     -1.48848262909266     -0.15413299060120
  C   6.04845884721232     -0.34676209547779      0.36493037230002
  N   7.44026420789220     -0.19072036754361      0.20620835751569
  C   7.89221317519788      0.97474161925183      0.34820706094732
  O   9.19499784909237      1.26561404305019      0.26032205041763
  C   9.40551563582298      2.66833247850504      0.48115550653509
  C   8.18888154157360      3.12694232778471      1.28016184936249
  C   7.08634921301018      2.23021224183433      0.69858730211324
  C   5.94685769422153      1.80483791152139      1.62591854102925
  C   5.26335047831507      0.59526555155362      1.04326626560935
  C   3.90451864641719      0.37933958493916      1.17166473018358
  C   6.56108514192410      2.82036717429880     -0.54041356261179
  N   6.16658966404181      3.31565695794353     -1.49545135943967
  H   6.07418594638323     -2.21030793134153     -0.66929709887182
  H   9.46750379378791      3.16978560809068     -0.48648976507714
  H   10.34763734643180      2.77846759436909      1.01096699729641
  H   7.98281898304786      4.18885204937251      1.17167474920894
  H   8.31550725416907      2.88768410034962      2.33663506552491
  H   5.24287097979937      2.62172354470165      1.78139428496854
  H   6.38786081072338      1.54728431889224      2.59434113311453
  H   3.28696587423187      1.10528932645223      1.68519412811416
