18
Coordinates from ORCA-job 20923optt
  Br  1.08460147975240      0.04404245683329      0.09285811830141
  C   2.96951764622351     -0.02632861170510      0.09282584924035
  C   3.65643013154978     -1.26270670954318      0.09332119703805
  Br  2.72362412434438     -2.90000403283271      0.09429501635022
  C   5.03699333818717     -1.31969522137451      0.09317355943278
  C   5.70335638549193     -0.10354511446282      0.09266133607717
  N   7.04697055535141      0.21424646783751      0.09253478339857
  N   8.01303131630022     -0.74331814401412      0.09293495657551
  N   9.20085899044944     -0.42152049577739      0.09298001990492
  S   9.80946329847803      1.15914022990375      0.09258231428018
  C   8.42168497849891      2.28693482940109      0.09202809898696
  O   8.60234548335193      3.46489766926330      0.09178733462647
  C   7.11619439752079      1.61185573317124      0.09211068778965
  N   5.94984035094939      2.17106781893144      0.09189883600290
  C   5.04467426526209      1.13019601115708      0.09225853877479
  C   3.65166307951057      1.17174690478713      0.09229772280718
  H   5.56348393710606     -2.26284112666070      0.09350166141437
  H   3.12426624167194      2.11483133508469      0.09194996899849
