21
Coordinates from ORCA-job 20934optt
  Br  1.15106878495283      0.38117160535072      0.29953496952651
  C   3.01640619728652      0.11272115833227      0.16280795534971
  C   3.58520413754905     -1.18808772958434      0.23415276570152
  Br  2.41937964106746     -2.64201042852947      0.49850412600411
  C   4.96518645598968     -1.37141315080130      0.12949931378311
  C   5.72531968539156     -2.62761572716576      0.15149422942606
  N   6.99900674214309     -2.66762939766273      0.15480143564863
  C   7.36948729283258     -4.06793653235259      0.15128262956883
  C   6.05278209586478     -4.81298842646131      0.13345116224210
  O   5.79382140482250     -5.96474980261465      0.11693929047004
  O   5.07644905379454     -3.82707049451965      0.13832874165098
  C   5.72913546295724     -0.19789594979505     -0.02427908031384
  N   7.05225726952999      0.04526499751101     -0.14385530981442
  N   7.28259850620094      1.35958421968114     -0.28178158422032
  N   6.17387317968803      1.99118493735496     -0.26144109529043
  C   5.16378129737137      1.07232756240368     -0.10004534787035
  C   3.78652126177730      1.24065388495442     -0.01131975439996
  H   7.94611480898577     -4.33651347980175      1.03818705238970
  H   7.96561511382450     -4.32884983303604     -0.72478778196348
  H   7.79754834178983     -0.63439263461727     -0.11716100972553
  H   3.33644326618038      2.22124522135371     -0.07331270816297
