22
Coordinates from ORCA-job 20932optt
  Br  1.08179997462374     -0.27653310384804     -0.27658488512821
  C   2.92721378330452     -0.03833990670034     -0.13942432947338
  C   3.51335114812666      1.17567407368903     -0.01370592989378
  Br  2.47912016185339      2.74194365411948      0.13725075010505
  C   4.94345842069829      1.31977216377031      0.07835514060718
  C   5.61257323226544      2.64185578622931      0.08861482703468
  N   5.45189524593919      3.41755529536494     -0.98931862110059
  C   6.08648465467771      4.56836963304379     -0.94994279264388
  C   6.86694443513147      4.90743229851075      0.15362574029507
  N   6.98700777602428      4.08938560305104      1.18375859465563
  N   6.34581609826602      2.93779470380261      1.15648473672813
  C   5.68823550434775      0.18476672370552      0.10733412612456
  N   5.08960935014574     -1.04062639387757      0.01715145231872
  C   3.72667268198231     -1.27129604123008     -0.16079175066234
  N   3.20074092744252     -2.41983534452304     -0.30556382289569
  C   7.11264245557798      0.17069975333918      0.19176607709361
  C   8.30721315170481      0.10759042728531      0.24796291075453
  H   5.98716764546226      5.23103986411978     -1.80271781585409
  H   7.40525592307263      5.84415563337763      0.21496906162241
  H   5.69252078787088     -1.84948742033525      0.03239791893501
  H   3.89032010359106     -3.16753329631534     -0.29012093795536
  H   9.36895653789127      0.06861589342095      0.31349954933275
