26
Coordinates from ORCA-job 20935optt
  Br  1.22448810586235      0.00561146560870      0.10950811507245
  C   3.08212639059386      0.16839436839638     -0.04435254131116
  C   3.74684374677033      1.31259360259706     -0.30526529742982
  Br  2.85901043576897      2.94858081852493     -0.56596153227482
  C   5.18672310931233      1.31601547720882     -0.38435066652693
  C   5.84901231293670      0.15845797379472     -0.16697571693147
  N   7.19225951481806     -0.17335738781721     -0.17824390105245
  C   7.34704474453471     -1.60676553383000      0.01308280751169
  N   8.41868341581156     -2.27020282445978      0.02748153008292
  C   5.99436845056800     -2.11445346188859      0.19174702730845
  C   5.13324890805260     -1.08267181695094      0.08234903976856
  N   3.76779953430062     -1.01053274872703      0.14038563380139
  C   8.25141171066045      0.71708728136482     -0.22988878749251
  N   9.43855672169854      0.39382826604519     -0.54862125175623
  C   10.23413264023340      1.62048039072239     -0.47627107853242
  C   9.35136360356158      2.63844088200307      0.27057549932787
  N   8.01617951175470      2.05798494510815      0.07750543276090
  H   5.69214818749502      2.23423062334385     -0.63925130278419
  H   9.22656427801448     -1.67976708759896     -0.15874584050741
  H   5.78807120501085     -3.15817435926779      0.35481430189183
  H   3.23367442167611     -1.85012712776638      0.29765974691769
  H   10.45427358220357      1.95576545440406     -1.49296211634593
  H   11.18262972922445      1.43874019185353      0.02609969295768
  H   9.40937696226893      3.64202602635268     -0.14488272804699
  H   9.60518609157122      2.67745730767517      1.33296405239075
  H   7.34482268529650      2.21835727330320      0.81659988120016
