23
Coordinates from ORCA-job 20948optt
  Br  0.71413507833556     -0.97761041301520      0.51596386943798
  C   2.53478981206625     -0.49264377262113      0.52848654959259
  C   3.46055702314255     -1.11967944448935      1.35880022841703
  Br  2.97361822520993     -2.51042275628117      2.53629477908103
  C   4.78149040766878     -0.70837245601499      1.33890226652598
  C   5.22480926984616      0.28920516802656      0.47327443810688
  N   6.57042503912552      0.65158982751796      0.59493264416084
  C   7.41930056742167      1.05333904605575     -0.24070609834707
  O   7.28825330761602      1.11174624042649     -1.61565688665526
  C   7.35875822129691      2.38670940312288     -2.15907768507854
  C   6.43347649677806      3.31098080261142     -1.90540711123424
  C   5.36291341185103      2.86355825388644     -0.99684607141476
  N   4.75451088487679      1.80326938644535     -1.31842042020916
  C   4.27658200938810      0.91758980340053     -0.36777048948656
  C   2.94903779680926      0.51276756149932     -0.32933198900459
  C   8.71815474448987      1.48459045627494      0.21570494419919
  C   9.80400699030668      1.86230207180177      0.54939118507899
  H   5.50034053591144     -1.16257517664267      2.00611219314350
  H   8.22761746154799      2.54873139744892     -2.78366282659918
  H   6.54452231308788      4.32033894579392     -2.27544499864077
  H   5.28550458758988      3.31151592649038      0.00113252693209
  H   2.23887284628386      0.98580990143437     -0.99291015838390
  H   10.76632296934973      2.19025982682752      0.86423911037793
