20
Coordinates from ORCA-job 20941optt
  Br  1.26999844646181     -0.72995854399322      0.00581330087432
  C   3.05287592551584     -0.20375132802249      0.03178071465490
  C   3.52052485687158      1.05976998657797      0.04133315426756
  Br  2.29121154050974      2.48455037594390     -0.00780884014980
  C   4.95867119102259      1.33575963637499      0.04570501493584
  C   5.57601270610591      2.66302956997685      0.05592367567142
  N   6.73238165032465      2.94784976029883     -0.51195422138781
  C   6.92257328074910      4.24636254768400     -0.18895686288205
  N   5.96521259061710      4.77745116165731      0.54353836398334
  N   5.11692402509465      3.75756175245224      0.69370551041433
  C   5.73294234756439      0.23076808055659      0.02365589375614
  O   7.05496766501674      0.06936153135722      0.04164474002955
  C   7.28581610213965     -1.34021225587578      0.05310410965009
  N   8.42918695637242     -1.83588959330887      0.06830667508735
  N   6.06676890556540     -2.02107153951608      0.04727735272416
  C   5.18382042918235     -1.10074494981755      0.02747132261960
  O   3.86625931599950     -1.29470885112511      0.03192899846344
  H   7.78301229640888      4.81611086937092     -0.49842551348534
  H   4.26141242934866      3.87796458206586      1.21055508541285
  H   9.14542733912900     -1.11420279265758      0.06940152536010
