21
Coordinates from ORCA-job 20949optt
  Br  0.94952597103627      0.06371368341280      0.00837381749178
  C   2.81876038922100      0.00012161537097      0.12845855796720
  C   3.56447146685244     -1.10649184983682      0.01107835407690
  Br  2.76850809417677     -2.78373393780587     -0.32687715067244
  C   5.00502599889061     -1.11593279578914      0.10708853077133
  C   5.75490211463008      0.00661846960858      0.17405610749898
  N   7.13943100259738     -0.04625280382189      0.18499056003609
  C   8.03938245560702      1.00999631266949      0.11167031361358
  O   9.22277523979430      0.82947917294308      0.09747934818083
  N   7.41429802248532      2.24903681785155      0.05614037319245
  C   8.04225257308066      3.52914924327175     -0.00977630767036
  O   9.21678053135101      3.74133577499209     -0.06336294803534
  C   6.91129545974319      4.48668687116831     -0.00826458362246
  C   5.75004346372548      3.82075281918021      0.05180618195613
  C   6.01872820596364      2.40173286948610      0.09826768112914
  C   5.19141171727798      1.34196287345682      0.19723842517447
  S   3.48487624256952      1.57253283080755      0.48685286185923
  H   5.49728046438761     -2.07789639542924      0.06453409582871
  H   7.59310178232873     -0.94819325434295      0.18178428077350
  H   7.07203965322102      5.55074131831876     -0.06487804442201
  H   4.75310915105990      4.23464036448783      0.05333954487229
