24
Coordinates from ORCA-job 20940optt
  Br  1.32824526789063      0.07849455277602     -0.64275170473118
  C   3.19364114371037      0.04924114213418     -0.36954537485247
  C   3.91534102912851      1.18996977332535     -0.03175577305147
  Br  3.08810648339131      2.87174732832233      0.16936687237481
  C   5.28551376843164      1.10509336003435      0.15795422548717
  C   5.95811952933262     -0.10752641559211      0.05321456626498
  N   7.35524906296448     -0.12752661046825      0.19196769773562
  C   7.89121310904531     -0.98669925799348      0.94579786742097
  N   7.20754049769851     -1.83742224197442      1.84697102235876
  C   7.14456750368528     -3.18564722300647      1.37798392330993
  N   8.01938704752924     -4.06893180338784      1.54021100128945
  C   5.90885466235126     -3.44931921071419      0.52921280774823
  O   5.84014409461053     -2.46106707060720     -0.50991317891595
  C   5.21935824420961     -1.25498643771399     -0.28661308770230
  C   3.85636767968739     -1.15979689800756     -0.51228554729484
  C   4.71511984629710     -3.48265659042008      1.37541829429993
  C   3.76516160687681     -3.46190150250083      2.10317779852570
  H   5.85684510231193      1.99190975128566      0.39372187792351
  H   8.97154128299621     -1.10024600560478      0.94320507267766
  H   6.26590271222915     -1.48506870860952      2.00663630428054
  H   8.77187842087169     -3.72811577029158      2.14003476503782
  H   6.04272725018868     -4.40276841213758      0.02184195662263
  H   3.31219350860300     -2.05073760983939     -0.79293239924829
  H   2.90798114595860     -3.45603813900857      2.73508101243877
