20
Coordinates from ORCA-job 20943optt
  Br  0.82080838970495      0.22458693767079      0.30179845835428
  C   2.68219495407763      0.17981681320185      0.06984641573687
  C   3.46850968865550      1.26508237668172      0.16982103269487
  Br  2.75139248144625      2.94623904442778      0.63810825383393
  C   4.90817713586582      1.18398005899331     -0.01411085738919
  C   5.71595182521796      2.42123470979732      0.03574836289872
  N   6.60880734985630      2.76090113938511      0.90187413130379
  C   7.00728650241792      3.98187915495759      0.41798750775636
  N   6.40983839185654      4.35373009297851     -0.66882163311574
  O   5.54858406919671      3.31332827258757     -0.93540431235991
  C   5.57132150111740      0.03545281280825     -0.23705274109640
  O   6.93683532011665      0.07954299898792     -0.42319942292725
  C   7.70868830746543     -0.19212202341927      0.67331526824126
  O   7.29051205103118     -0.53459269132314      1.72528377827757
  C   4.97743279588769     -1.29644359862386     -0.38501641649584
  N   5.58895292109199     -2.37531805109268     -0.62372930348885
  S   3.21942355054282     -1.42874449860025     -0.27489588776589
  H   7.75598523482773      4.59706476174622      0.89020106789377
  H   8.75859526261676     -0.05042752162533      0.40017052096218
  H   6.59370226700670     -2.23219078953940     -0.70292422331454
