17
Coordinates from ORCA-job 20951optt
  Br  1.09709658783933     -0.35151920155922      0.56256345562245
  C   2.91310070324455     -0.08006209541640      0.18614284669220
  C   3.47411135726206      1.18066955746062      0.11015099149912
  Br  2.39867603589681      2.68478158106627      0.46115487686462
  C   4.84379006314596      1.36161766416824     -0.18963866820116
  C   5.67663549840212      0.29313863571356     -0.37260639595137
  N   7.02200353542383      0.28049548767990     -0.61120339008878
  N   7.38730013632016     -0.95030045404791     -0.68648373678283
  N   6.35836869046684     -1.82448262849466     -0.51535451319928
  C   5.29755416915634     -1.07854649169422     -0.31579682950681
  S   3.70569054689409     -1.57640856646990     -0.02381806593455
  S   5.59823848046023      3.01819413902903     -0.26847180165029
  O   4.81256066883480      3.81681780387062     -1.15622211079181
  O   5.83978296699643      3.39393028704477      1.09579982013228
  C   7.30793749756505      2.81928350017719     -1.07881336927770
  O   7.41463718030666      3.04168182469267     -2.22518242364183
  H   8.08851588178466      2.64070895677942     -0.32922068578427
