20
Coordinates from ORCA-job 20950optt
  Br  1.15860332898974      0.41489083323814     -0.01781414922712
  C   3.02525813245405      0.11642041270355      0.01168502242201
  C   3.55175686238638     -1.19123126216133     -0.02543976649827
  Br  2.40274205053473     -2.67566523696561     -0.17315246596841
  C   4.93479005070137     -1.37386187043265      0.00213386999385
  C   5.61804064550034     -2.68148963938027      0.00585907247927
  N   6.62027341644739     -2.88957422117808     -0.76955643727488
  N   7.16987635086804     -4.09504642599855     -0.53435108782259
  C   6.66019001986075     -4.88768304340471      0.46361800063936
  O   7.05024473131451     -5.96878398246922      0.79972126393011
  S   5.28409028921495     -3.96717095345353      1.13982668043310
  C   5.72372605064760     -0.22286094557650      0.04184020829671
  C   7.12386760650321      0.09334703306176      0.08425830013242
  C   7.17881299657209      1.43912851628124      0.13812271524290
  O   5.94503358287852      2.01852961651986      0.13678321736154
  C   5.05828567728074      1.00445823795750      0.07661515805849
  N   3.76424025904966      1.20318577659777      0.06926010862704
  H   7.94470195718472     -4.39426354794031     -1.10576053779710
  H   7.95778668677260     -0.58507270768484      0.05790488090799
  H   8.00867930483856      2.12374341028580      0.17544594606355
