25
Coordinates from ORCA-job 20965optt
  Br  1.14244586988853     -0.46497539509491      0.43220414632938
  C   3.00198457894192     -0.32416467340566      0.16459337608237
  C   3.78874375620047     -1.42593761145217     -0.15013304942854
  Br  3.07747562905782     -3.16405982452605     -0.29404295171868
  C   5.14961490874165     -1.25893072278139     -0.37076522732063
  C   5.71061615752722     -0.00337427821615     -0.25074772168224
  O   7.07506505604383      0.11309631418805     -0.43924404072905
  C   7.52211024830710      0.92141927768339     -1.46023128200731
  N   7.97185360846379      0.50460177119152     -2.54551916094376
  O   7.58695831436803      2.23751580803361     -1.15347385752426
  C   6.39013481588160      2.94104657054531     -0.87944195998827
  C   5.62238645244698      2.43310797745873      0.32753853732262
  C   4.95441864838853      1.10546011726732      0.11014688742790
  C   3.59319220590389      0.92753151808066      0.29387714322299
  O   5.53073054793366      2.89171685495262     -1.98464422834398
  C   5.96782515157213      3.52169624635181     -3.11924522477540
  N   5.30666503759412      3.58170259902978     -4.17630550187229
  H   5.77447980332323     -2.10217321983578     -0.62871134307636
  H   7.93123087851059     -0.51087034782458     -2.58316701685914
  H   6.73681775214128      3.96112034370343     -0.70503308279320
  H   4.87427410667690      3.18295964300158      0.58349975777457
  H   6.33007035341655      2.36330751500839      1.15714353944424
  H   2.97386568153597      1.77527461751988      0.55633145748118
  H   6.95365067011698      3.97489363965778     -3.02848477133721
  H   4.41738976701713      3.08903525946281     -4.08614442468491
