23
Coordinates from ORCA-job 20963optt
  Br  6.80768718470036     -2.30886612604734      0.82293054141069
  C   5.60870037571091     -0.88197962287985      0.74108790168635
  C   5.90248257240256      0.36928198669749      0.34449410236805
  Br  7.66510498566674      0.81291484681639     -0.12891928512812
  C   4.81564938741067      1.33832633500977      0.31532668082615
  C   5.07471338808041      2.74655985863206     -0.17167548316148
  O   5.60104229336578      2.67726933801184     -1.46252206064725
  C   5.81100742890801      3.95602904346206     -2.02849443992173
  C   6.42412373070993      4.95642765239008     -1.06317159905445
  O   6.98749283202529      5.94131556313522     -1.45257286150501
  C   6.17844868415954      4.71280019250438      0.41440746963613
  O   5.96084046852672      3.35041138859381      0.72335796008718
  C   3.59539119308849      0.95625374745480      0.74071345648478
  Br  2.10178165131959      2.11089842749740      0.79222724678392
  C   3.31712500287584     -0.40473527177743      1.22159157231630
  N   2.26849223683480     -0.90952936288549      1.68673248064825
  O   4.39267596225979     -1.26473257897733      1.13064159493031
  H   4.14277278567131      3.32382778695291     -0.19658388031225
  H   4.85842830109278      4.38441319797414     -2.37173975746328
  H   6.46580669939075      3.84115151083222     -2.88950893697021
  H   5.30358373978921      5.31573515627664      0.69791451009544
  H   7.03660007761458      5.05797696921935      0.98634563664323
  H   1.51004901839588     -0.23675003889315      1.71641715024700
