21
Coordinates from ORCA-job 20988optt
  Br  0.96782563416978      0.04110838595315     -0.09822530527103
  C   2.82216029060202     -0.11434576687819     -0.04847960790419
  C   3.52981683211504     -1.25822837243330     -0.04006340724991
  Br  2.71908207162926     -2.94902597730465     -0.05992616134280
  C   4.95254779541075     -1.16898170742943     -0.02320431335265
  C   5.60879803207900      0.02387674073431     -0.01100745103673
  C   7.05478447887919      0.14949377163046     -0.01342752504082
  C   7.90137832287587      1.24012157846268     -0.00374528266725
  N   7.88152346444305      2.61033470794994      0.01792705968858
  C   9.19033617266176      3.02214172762965      0.00837095878938
  N   10.06504756296261      2.06587961601786     -0.01787722750154
  C   9.29307698011456      0.91388653474508     -0.02567620752421
  C   9.52449764589784     -0.43200277954409     -0.05073186951978
  S   8.04561283519084     -1.27864664568890     -0.04868843869359
  C   4.80125954956092      1.24381033286097      0.00574192532547
  O   5.19813267961603      2.37477729364683      0.04351469795748
  O   3.43546395993436      1.07446026585444     -0.02519054673939
  H   5.50891910358837     -2.09804432156750     -0.02558327966036
  H   7.04391759172179      3.16924739872922      0.04124517799247
  H   9.43322859763686      4.07474149088609      0.02112502251180
  H   10.46059039891002     -0.96460427425461     -0.07009821876091
