22
Coordinates from ORCA-job 20981optt
  Br  1.07627164387140     -0.15674219783669     -0.00708000736689
  C   2.95084351582099     -0.00981789491863      0.10270415376639
  C   3.57862609799334      1.17569148119350      0.42162839274818
  Br  2.59797735611738      2.73693992944208      0.80340277553201
  C   4.99789429273875      1.24030044782726      0.49142053520175
  C   5.75739473569518      0.11421486265901      0.24012914091294
  C   5.11073111169188     -1.07874716627967     -0.07227282331223
  C   3.71527105644082     -1.16028962872300     -0.14452263456687
  C   3.32126558125787     -2.49997927700075     -0.47451866125350
  N   4.28483679365664     -3.35055363414883     -0.64020823780422
  S   5.76163367550202     -2.63451699629319     -0.41722984969308
  N   5.62564792546376      2.41687979213598      0.91297935838685
  C   6.86259209174874      2.83758360439379      0.30887540303437
  C   5.60716187813018      3.62148117613863      0.09969778750788
  C   5.39322901902687      4.87388776931116      0.78044831526703
  C   5.24839404578799      5.91814300891789      1.34666141816946
  H   6.83464491979049      0.16950530311640      0.31508706223562
  H   2.29421465022399     -2.82426627644996     -0.58422132161502
  H   7.22471923374028      2.27318369563361     -0.54368123431975
  H   7.61082616494542      3.22032004579079      0.98917624124928
  H   5.15257336272369      3.53481144392815     -0.88160065774932
  H   5.11425084763222      6.84397051116247      1.85312484366910
