29
Coordinates from ORCA-job 20997optt
  Br  1.00005393285531     -0.27657141789052      1.10561914727036
  C   2.76958871531196     -0.26475715878646      0.49504788701431
  C   3.13785903379674     -0.22735444807068     -0.80503760020964
  Br  1.91042392011930     -0.19428125207984     -2.22401735189438
  C   4.53701359860687     -0.21605897638512     -1.09131050610564
  C   5.49247027686400     -0.23806120420341     -0.13182781767844
  C   6.94928838826722     -0.23785497114031     -0.49953521931326
  C   7.78742776008011      0.93613635794808      0.04628849762488
  C   9.17926591918418      0.31452070873971      0.18593617202670
  N   8.95838732740078     -1.07124477040163      0.60815412434850
  C   7.72483450202467     -1.51751096858500     -0.03837698058078
  C   8.09257550303018     -2.40733471147615     -1.23646069053330
  C   6.92214743065264     -2.75420652203832     -2.04151825342655
  N   5.98521328899976     -2.99053569352028     -2.65835010216084
  C   5.09402887342422     -0.31027101745179      1.27462947294188
  N   5.80850517038581     -0.39403839500057      2.33431518265295
  N   3.71422898498311     -0.29647324729305      1.46964145256242
  H   4.83270000002317     -0.20675808546382     -2.13355388012722
  H   6.99410072500015     -0.19700942536960     -1.59069976922733
  H   7.41770331032632      1.27458582439924      1.01515018441884
  H   7.76392083519891      1.78975504734552     -0.63017020973927
  H   9.82511346731833      0.83072065302068      0.89390954724368
  H   9.68841212573477      0.31185529087534     -0.78242822975718
  H   8.87944317596829     -1.12869368186061      1.61518728017780
  H   7.12547414999161     -2.10702753060063      0.65633036108901
  H   8.57655897173315     -3.31942683572349     -0.88869454271837
  H   8.80461315057063     -1.87730518677929     -1.87322456371374
  H   6.79697017838286     -0.38082503358054      2.12040286867077
  H   3.42667728376484     -0.34397334862747      2.43759353914381
