28
Coordinates from ORCA-job 20998optt
  Br  0.70195987363488      0.33198343314232      0.68358902128120
  C   2.56550367822039      0.22789019456219      0.93099410106240
  C   3.46161623562517      1.11900076216348      0.35583338319823
  Br  2.85142637081465      2.50842574014947     -0.76930851602981
  C   4.82810417375155      0.98242016363870      0.60716918002087
  C   5.82539245927295      1.95396918786435      0.03134838568039
  C   7.26438008208560      1.81165006755338      0.53402341825838
  C   8.10898501390452      3.02843911596408      0.14890981098033
  C   8.33111553947469      3.05208893899383     -1.36642930823682
  N   8.78270520000369      1.72944622002206     -1.77528341075571
  C   8.54875241274291      0.62768524184456     -1.00162484221828
  N   7.85889613792669      0.56586926489130      0.06382079461660
  C   9.30270382491211      4.06969573455330     -1.76524337076189
  C   10.09669132727469      4.89938799321065     -2.10219978692439
  C   5.20723450476171     -0.08232126841488      1.42376718285956
  N   4.35759074438087     -0.94558914115379      1.97142487412105
  C   3.06668245598754     -0.79013415532392      1.73401064981505
  H   5.47847392206123      2.96786285206870      0.25254442276696
  H   5.80836681451696      1.85953138418038     -1.05953658422579
  H   7.23480756473943      1.76178775656545      1.62623051656760
  H   9.08203159911431      2.95829893288901      0.63754977892158
  H   7.63542320904385      3.95856078239720      0.46293902198503
  H   7.38343503503198      3.28887372454012     -1.86294201819190
  H   9.44624764330206      1.66454726891561     -2.52749809173566
  H   9.01372056081373     -0.27968900344785     -1.38059876359766
  H   10.80092739748169      5.64063007133621     -2.39656708210187
  H   6.25796369865541     -0.25542393591500      1.61708852411554
  H   2.38286252046468     -1.49788732719094      2.18798870852902
