24
Coordinates from ORCA-job 20992optt
  Br  0.99008631247125     -0.99005277495510      0.87240306902753
  C   2.74670858287295     -0.59507386108706      0.37050253576152
  C   3.11960000042611      0.39511005332334     -0.47586374749782
  Br  1.88017439978485      1.53048883433672     -1.31341326134140
  C   4.50266359353577      0.56846385109869     -0.74630925134878
  C   5.47077005245720     -0.21852214006965     -0.18959692199095
  C   6.88713839931999     -0.02046238298517     -0.43509809960587
  C   7.61570769349428      1.03401207544055     -0.95681364004483
  C   7.15129420959435      2.38500460320657     -1.41485652756100
  C   6.52711704071093      2.37813071821572     -2.73930124530300
  C   5.99239110182655      2.36532750744532     -3.81090771907270
  N   8.94075631487823      0.72398810593881     -0.97752437410735
  C   9.03260625250411     -0.48711484877723     -0.47787440798435
  N   7.82843505903623     -0.97696177173250     -0.13446055445480
  C   5.06504379004688     -1.32587846778838      0.67291212700619
  O   5.80101045599355     -2.16542216658089      1.17328363044374
  N   3.70320519253025     -1.39859226909635      0.91238430743445
  H   4.77307915512524      1.34402838649346     -1.45023122852314
  H   8.02476296112448      3.03798512570116     -1.43258096401946
  H   6.44385075359303      2.80690085497571     -0.69413297591546
  H   5.52891756112369      2.35451308290620     -4.76822677261174
  H   9.94625199078751     -1.04219217175992     -0.34221490873951
  H   7.59607473260011     -1.84002848297374      0.33902445603318
  H   3.42435439416235     -2.15165186127629      1.52789647441558
