28
Coordinates from ORCA-job 209optt
  C   -3.67614469855901      2.97305996778129     -0.20750247311627
  C   -4.31042243484670      1.70055754866639     -0.09097711478731
  C   -2.24889695839295      2.84402952981588     -0.17638233810023
  C   -1.86255853015806      1.55524824537424     -0.05713952850431
  S   -3.15743029258598      0.41357449180104     -0.00195903044184
  C   -0.44986119053342      1.08608572754750      0.00695292951697
  O   0.46942612454955      1.94495182268212      0.03351845118721
  O   -0.21808295484810     -0.15378080412484      0.03521110365082
  H   -1.54429199077152      3.65417733506328     -0.23969402277850
  C   -6.50457832800757      2.75315676764778     -0.11151418832881
  C   -5.87035348617711      4.02568503351319     -0.22895874775782
  C   -7.93181509602594      2.88287736837498     -0.13764340062812
  S   -7.02345006107626      5.31296517432316     -0.31495096400726
  C   -8.31864451204322      4.17173858072381     -0.25465290994312
  H   -8.63644383319985      2.07313610862511     -0.07107630877396
  C   -9.73246645511302      4.63966673809684     -0.31062773507894
  O   -10.65092910881395      3.77948841480869     -0.31891152588917
  O   -9.96654484747701      5.87884873498608     -0.34882069586485
  C   -5.69625241561443      1.61482101234744     -0.02959668832742
  C   -4.48451812216255      4.11122189151409     -0.29116258463919
  N   -3.87164303743264      5.43215778365889     -0.47445982508072
  N   -6.30843121274341      0.29336151053427      0.15224550107138
  O   -4.56002860469362      6.39912421947086     -0.22822339077911
  O   -2.73277823978895      5.48496379617651     -0.87499305616224
  O   -7.44806089884084      0.23931821610072      0.55040048473092
  O   -5.61870375478048     -0.67299703871058     -0.09270833243805
  Li  1.53666836233963      0.42869110380359      0.08592385276650
  Li  -11.72076342220223      5.29387071939748     -0.37329746149656
