24
Coordinates from ORCA-job 21007optt
  Br  3.33129099241998     -1.42851463335083      2.73314398162945
  C   4.02731500728545     -0.62957332641680      1.16911760869886
  C   4.59463939838059      0.64536404802532      1.18944179678593
  Br  4.74673340950650      1.64154815651291      2.77292523898088
  C   5.03575883730295      1.14834179020054     -0.03652726807930
  C   5.66714297841856      2.50555552394202     -0.20408591323711
  C   7.15849191989408      2.40406545498187     -0.14288337686505
  C   8.06507529162885      2.65430116069607     -1.13162090766808
  N   9.29266851317151      2.39510080444612     -0.57505609543523
  C   9.07599834342591      1.99952872399292      0.70172327295483
  C   10.17003161211349      1.61781081700058      1.65537076415111
  C   11.48177287276169      1.74808427328584      1.02784293988858
  N   12.47152529823085      1.87264804463166      0.46530524889101
  N   7.80513182435548      1.99211233904550      0.99643158142526
  N   4.93505711902065      0.41707678907420     -1.14717299881111
  C   4.40276247638738     -0.78683267457876     -1.04220184099425
  N   3.93600938836009     -1.34330204125323      0.06943126842781
  H   5.30945651914065      3.19319966804135      0.56083395192876
  H   5.37328723648337      2.87917392696657     -1.18375567297813
  H   7.94785962442054      2.97779831212540     -2.15054354614534
  H   10.19312827351921      2.47569806804090     -1.02214695112380
  H   10.03043229203243      0.58758651025102      1.98679979183706
  H   10.12920294322730      2.25329974018229      2.54125746904059
  H   4.33522782851233     -1.38007147584349     -1.94663034330273
