26
Coordinates from ORCA-job 21005optt
  Br  1.21629508122989     -0.05156701110869      0.49089139311924
  C   3.05962201971514      0.03675161834682      0.16896674789881
  C   3.89031220065610      0.96715420153663      0.68971198953306
  Br  3.31406170842908      2.33581419039440      1.84049343444378
  C   5.28072926932278      0.87137702499766      0.36720520265785
  C   5.77506318908028     -0.06969376443962     -0.47270026590787
  C   7.20064694944021     -0.13714674970411     -0.79744919945022
  C   7.99589201662178      0.94426034586261     -1.11688475010748
  N   9.28178390586620      0.50939664169597     -1.31569074422073
  C   9.30862128866426     -0.83808812602602     -1.13646362623816
  C   8.06342827599624     -1.27469630574965     -0.82413599598172
  C   8.13238577130881     -2.74295386488175     -0.54752799849415
  O   9.51192582735905     -3.07457801474985     -0.78195336912773
  C   10.30890385066951     -1.94208158058630     -1.11904737885277
  C   4.86494099370915     -1.04340050393756     -1.08730469290770
  N   5.11367131781645     -1.94993620051816     -1.94875333255950
  N   3.54369184692840     -0.93014374119984     -0.65288335969799
  H   5.95974857238802      1.57351739363920      0.83466675394754
  H   7.72741511994518      1.97952929016120     -1.24641781543043
  H   10.05149538764041      1.09610041118880     -1.58457018606562
  H   7.51001356645646     -3.35210566292652     -1.20736960407745
  H   7.87617744995496     -2.99336210033834      0.48578679473434
  H   10.78894504618720     -2.11323155803810     -2.08756543567169
  H   11.09083326088729     -1.80322232463337     -0.36513867777952
  H   6.08979155266529     -1.92281049305521     -2.22316268472870
  H   2.90460453106180     -1.59388311593019     -1.06770319903517
