24
Coordinates from ORCA-job 21008optt
  Br  1.13694532761360      0.12845306382548      0.35378633789989
  C   2.99635565405681      0.06577831926266      0.07286607348929
  C   3.72943963102136      1.19912876462913     -0.28276095773495
  Br  2.92027445763631      2.88396871753157     -0.48659260829104
  C   5.09678951159082      1.09918345262071     -0.48739674700157
  C   5.75713773701774     -0.11895088250776     -0.34728972408882
  C   7.22282080844107     -0.14691934842661     -0.52086867055693
  C   8.08119080527612     -0.72500469983913      0.35413229741357
  N   9.44322453159877     -0.68938133656465      0.15615043873067
  C   9.90999965625404     -0.07260184257071     -0.86562155168670
  C   9.09016712815156      0.61814064226706     -1.87067394792789
  N   9.47124686428109      1.25691474170298     -2.90406357660957
  N   7.73362366775776      0.50714126811946     -1.60589944865762
  C   5.01569914241927     -1.25696481920240     -0.00906644002933
  C   5.60119635749407     -2.62946512204229      0.04316333105050
  O   5.03907416394618     -3.55192733570202      0.56883265122871
  C   3.64723744100494     -1.14705602401574      0.20985144120731
  H   5.65786992036764      1.99444898229486     -0.72205224909534
  H   7.72431556003804     -1.21038672002118      1.25062484681345
  H   10.98633602883925     -0.05376117982611     -1.01532844757934
  H   10.48378242639246      1.25155688269633     -2.98246602843038
  H   7.11553257661681      0.90958581630329     -2.29775022790457
  H   6.57182239827023     -2.76514845877979     -0.45895342761134
  H   3.09291820391396     -2.03973288175517      0.46837663537200
