28
Coordinates from ORCA-job 21000optt
  Br  7.52348827861811     -0.41652044040634     -4.34409208339482
  C   7.57374540808745     -1.38356209112485     -2.72805026784287
  C   6.47861065866288     -1.47235708087087     -1.87720372432616
  Br  4.87860767355063     -0.56165768504634     -2.27128153274366
  C   6.60208816955866     -2.23896848823672     -0.70659220119709
  C   5.45780356396333     -2.46344251384423      0.23979665157129
  C   4.71032385768797     -3.79199765086861     -0.06655604265055
  C   5.47744423216201     -4.99632917593076      0.47357908535871
  C   4.85729930823536     -6.28762895512231     -0.03741864835144
  N   4.73646547037126     -6.18993257323387     -1.48140669772814
  C   4.47756176858094     -4.99298255615556     -2.06424929672787
  N   4.43794292112196     -3.84914275861335     -1.49984810440200
  C   3.35954834446136     -3.64179718025677      0.62568462866899
  O   3.03889561851481     -4.21533837056544      1.62827692814112
  N   7.74594115056289     -2.84046089667103     -0.38765555616489
  C   8.78783809377973     -2.73613174020597     -1.20358050077284
  C   8.75290095734936     -2.03121403929601     -2.39130070894504
  H   4.75301207120322     -1.63527284101037      0.17871009605097
  H   5.85143717488326     -2.51436370072673      1.25490671181241
  H   5.45525688183321     -4.98205880535621      1.56299869041954
  H   6.51534257139268     -4.92593707544910      0.14816023555837
  H   3.87763530855462     -6.44077127685962      0.42398152679478
  H   5.48705559640047     -7.14139864413888      0.21008923645387
  H   4.62811105055896     -7.02222639886570     -2.03261558208733
  H   4.30390786515380     -5.04215452636283     -3.13738495812818
  H   2.68185624772441     -2.92700222644729      0.12078401937287
  H   9.69544571790244     -3.24238504763693     -0.89498154763018
  H   9.61743403912413     -1.97596526069726     -3.03675035710986
