25
Coordinates from ORCA-job 21014optt
  Br  2.47967414045060      0.96430496470138      2.97455853025730
  C   3.30202645105769      0.27948051849316      1.42081881612614
  C   4.13013659111709     -0.84439095372612      1.45144437848977
  Br  4.39720250024309     -1.77499573690736      3.08162008807493
  C   4.74676000281421     -1.29573573391950      0.28273270069366
  C   5.67435983947845     -2.49356715090007      0.22403696134743
  C   5.02283687249186     -3.67930099447091     -0.41787302958617
  C   5.39899209525018     -4.19863746550218     -1.58775472042570
  N   4.71608273971128     -5.28501774443938     -2.12092020723738
  C   3.63293681621630     -5.89831688106380     -1.54745299182370
  O   3.06427969775071     -6.83109267989212     -2.04993947129010
  C   3.19089287389593     -5.30795141095794     -0.20214388628277
  O   2.25748455349824     -5.75545828027333      0.40680650163445
  N   3.93970841320659     -4.24606084931313      0.24516355516717
  C   4.48607191501924     -0.61993124351408     -0.90591484580388
  C   3.65082689547438      0.48079870776378     -0.94293478447060
  C   3.06229346406790      0.93788718738738      0.22466232694796
  H   6.02702664822219     -2.75617335660554      1.22076593123975
  H   6.54904060947366     -2.22702555404210     -0.36963885187475
  H   6.22980684104431     -3.81308530293081     -2.15586963827974
  H   5.00921805161139     -5.68111687412040     -3.00215392463731
  H   3.65118593006158     -3.86158708159349      1.13744709699962
  H   4.94848408675143     -0.98361343611114     -1.81626218530292
  H   3.45835073837480      0.98991274361968     -1.87759059115938
  H   2.41532123271688      1.80367460831803      0.21839224119622
