24
Coordinates from ORCA-job 21018optt
  Br  0.94725543563758     -0.13586765644242     -0.37889909652875
  C   2.78674015953114      0.05068554878979     -0.20986918156750
  C   3.45359264477665      1.21404494358975     -0.27005389990592
  Br  2.59292861846908      2.85500317205334     -0.53876905461908
  C   4.90453919112509      1.20208798099178     -0.12865662696262
  C   5.71580857150157      2.46433112728494     -0.19047784530221
  C   7.19279095245218      2.22808068876504      0.06218465508602
  C   7.93457492511125      1.47263528853947     -1.06529651956349
  O   8.86861701835156      2.42459045778409     -1.57475325617027
  C   9.05836849236626      3.34841207048270     -0.53268765044188
  O   7.82950829464492      3.50505092344810      0.08940548234024
  C   10.12462388695486      2.76278139701298      0.40087777257458
  O   9.89573067499901      2.37681373114106      1.50911888898800
  N   5.56194823515346      0.11742574447813      0.04522418481057
  O   4.89150555909126     -1.06979710475463      0.11011827548312
  C   3.53567645613476     -1.20177889594526      0.00493665721720
  O   3.05908534312270     -2.28899745259221      0.08691324905898
  H   5.33306374581229      3.17264310948950      0.54786788363734
  H   5.58068404043215      2.93480568406361     -1.16925383445502
  H   7.34263010835062      1.72832965187693      1.01920022764105
  H   7.28146156410524      1.17772669905301     -1.88456589750083
  H   8.44637091145130      0.59079590624154     -0.67772320345712
  H   9.38960024738316      4.30035550361749     -0.95136604553602
  H   11.12789492304180      2.66584148103124     -0.05647516482638
