25
Coordinates from ORCA-job 21011optt
  Br  1.12152609756277      0.06508786935405      1.63427352305558
  C   2.95573487094346      0.27830744217602      1.39006064141123
  C   3.53581540140888      1.26350958178269      0.67184131610808
  Br  2.54751468974277      2.58659780234216     -0.21109526784431
  C   4.97893470948913      1.23832003696815      0.61704835938674
  C   5.71165921413105      2.29367969680112     -0.15625703018358
  C   7.22430767749380      2.09177324646956     -0.16522995263696
  C   7.67057309846767      0.90643623784453     -1.05913875985521
  N   8.29914708334432      1.49203919961893     -2.25067048986696
  C   8.39011623153069      2.73522284008194     -2.04843964820960
  N   7.87028417288744      3.21034582373959     -0.84981482281172
  C   7.99576004746956      4.48949863815713     -0.36763899957313
  N   7.63131734204762      4.94387633440793      0.75785891353504
  N   5.68107854103147      0.33147828859761      1.21609134865753
  C   5.08244393865691     -0.67274429316020      1.93731785467411
  O   5.62392961203039     -1.55594640674036      2.50898790426917
  O   3.66457769571222     -0.65062135076970      2.00362364892319
  H   5.44015881285908      3.27217321192924      0.25362309018851
  H   5.33653562679592      2.29779642719936     -1.18542107717861
  H   7.59992993760270      1.99508061205760      0.85311559306800
  H   6.82535186460245      0.28305744959215     -1.35124648268587
  H   8.38767515843691      0.25992738357874     -0.55324888559694
  H   8.84016218160136      3.43944963891381     -2.73943197655347
  H   8.47258888641603      5.16261900626250     -1.08004670525974
  H   7.21987710773525      4.22703528279538      1.35383790497893
