25
Coordinates from ORCA-job 21021optt
  Br  3.38877648382497     -2.43241021254800      1.58195608074431
  C   3.85966663724919     -1.05696042566727      0.38912355065411
  C   4.61951625393649      0.04622714390766      0.76014517706558
  Br  5.23690262847559      0.24510125829682      2.53051323461943
  C   4.90791759429107      1.02341438587691     -0.19464649264270
  C   5.72129665444306      2.25649526796817      0.09633343727641
  C   7.21627168656472      1.95603195984802      0.13414785745397
  C   7.82089330727512      1.45463801711579     -1.17584158087271
  O   9.21575276824293      1.72762255422803     -1.12855463378624
  C   9.40134216714911      3.07971603647502     -0.84491852589417
  S   8.17398924188958      3.46314770645325      0.45317117245707
  O   7.41326570528038      4.62251272943234      0.06475799228991
  O   8.76898847515445      3.39445223220806      1.75826420099758
  C   4.40269755609638      0.81650991573370     -1.47563423811568
  N   3.68064778693917     -0.23430802717773     -1.84280773310338
  C   3.41649354907747     -1.15094390063869     -0.92690886005410
  H   5.41683791700001      2.69532988206525      1.04749825346911
  H   5.53320920377723      3.00417263746787     -0.67517139744229
  H   7.47725323010172      1.28052877911142      0.94846648599043
  H   7.36351328243848      1.96854366373501     -2.03165746629811
  H   7.70295962925212      0.38100809477210     -1.29977447230601
  H   9.17110181585763      3.72629967637408     -1.69727696379772
  H   10.40278427654552      3.24949573761600     -0.45881505059981
  H   4.59131008247702      1.56258143399329     -2.24172922999627
  H   2.82361206666053     -2.00620654664711     -1.22864079810874
