23
Coordinates from ORCA-job 21027optt
  Br  0.95045729527936      0.52459318798226      0.24162478113818
  C   2.81765322110563      0.47506569700817      0.07719245345811
  C   3.47092004059077      0.65303969016166     -1.09157657340288
  Br  2.55266297449298      0.93370326182989     -2.71446573555156
  C   4.89907730671029      0.66499716096582     -1.17206670542207
  C   5.75465490233587      0.47679112607611     -0.14330841942602
  C   7.20989573381088      0.49101286959087     -0.41685711792235
  N   7.73583123253690     -0.18592047591873     -1.35437743059231
  C   9.16917079104875      0.06555625878048     -1.29963610488088
  C   9.38305628124928      1.02859973301916     -0.14596261633269
  N   10.42684372702108      1.55756288841845      0.32834653443418
  N   8.09533178200778      1.26560855672651      0.34612761792756
  C   7.72923651693732      2.22677097011549      1.30908965345788
  N   8.49348497379287      2.94347774465980      1.99894486752680
  C   5.34615126218613      0.13118309142699      1.21357611155214
  O   6.09309889058477     -0.16650582114154      2.10710941297578
  S   3.59518301158787      0.17062431461571      1.58556877222595
  H   5.33282572488769      0.84220634997855     -2.14871654430231
  H   9.52457936204640      0.49226040340556     -2.23969440533555
  H   9.70648633667445     -0.87008467322264     -1.13430643119194
  H   11.25215370624435      1.25676655406763     -0.18352157198812
  H   6.65039157010114      2.32727693131651      1.40041987047255
  H   9.47485335676732      2.74441418013731      1.80448958117955
