22
Coordinates from ORCA-job 21028optt
  Br  0.99171413233198     -0.17761333810172      0.25686454336109
  C   2.84347858355046     -0.02942079578626      0.08975052145689
  C   3.53121033287722      1.13314725616607      0.14936921076929
  Br  2.63589620421697      2.77007442859811      0.40052342332320
  C   4.97135872670810      1.15612895923645      0.02192982190124
  C   5.72161188223273      2.46162623339154      0.10550673605016
  C   7.20878325165531      2.36799777713254      0.09868939735801
  N   7.99388297918633      1.66685659233098     -0.64022286844491
  C   9.27846222436560      2.03514980989742     -0.24696137885881
  C   9.17523143383480      2.96473547696142      0.72985938698275
  O   7.85905481631716      3.18228719978685      0.95867633541939
  C   10.45372955061295      1.47928259349670     -0.81886170071987
  C   11.44621723124285      1.01300061283874     -1.29973848344545
  C   5.56721252337488     -0.02915795256038     -0.18028078847500
  O   4.90657985513895     -1.19294247162904     -0.24651037801990
  C   3.54500775898115     -1.30129205369011     -0.11795443985081
  O   3.04693831799091     -2.38200412204873     -0.18351480611416
  H   5.43469109884023      2.98872104440574      1.01612619586167
  H   5.41250316187477      3.10571695685535     -0.72406833678422
  H   9.88556543829484      3.51684438844060      1.31714474071592
  H   12.32710379368350      0.59847672892925     -1.72877205953996
  H   6.62876670268819     -0.15461532465155     -0.32455507294652
