26
Coordinates from ORCA-job 21030optt
  Br  1.08043097711463      0.09985917446949      0.46516136618417
  C   2.94078982272575      0.11849859087424      0.15230510028877
  C   3.65751287355317      1.29592152817261      0.00024605809908
  Br  2.83986193655703      2.99222296574822      0.11723014834416
  C   5.02222616134146      1.23797336160801     -0.25240323105902
  C   5.68101473361751      0.02346459162462     -0.35053142066602
  C   7.16808575683691      0.00538757163506     -0.62881009451325
  N   7.64315016384147      1.22388313056465     -1.29270368217513
  C   8.61083278511474      1.65887434182513     -0.60110621216319
  N   8.92691027401122      0.91751730197336      0.52787194319503
  C   8.02178967685053     -0.12971870029727      0.63758793352604
  N   7.89567144509942     -1.01087769285063      1.53290881348338
  C   4.96476148052512     -1.16541635361335     -0.18349146062572
  C   5.62979462873664     -2.52250841759176     -0.29301839425037
  C   5.96822223393170     -2.86269460497451     -1.67585216739644
  C   6.24994509432699     -3.11783059364306     -2.81205851021772
  C   3.60311999215824     -1.09915766471646      0.06381985469560
  H   5.57172033256418      2.15726538861196     -0.39879330231771
  H   7.39442215183534     -0.84111093902810     -1.28490146362614
  H   9.18779905522277      2.54244028800860     -0.84541313151790
  H   9.60389168686411      1.17268402831238      1.22646441734206
  H   8.58247572994645     -0.91961906471483      2.27846450565754
  H   4.95699394779049     -3.28385418568285      0.10404906939156
  H   6.53172701389808     -2.54008985357807      0.32286954017001
  H   6.48888691006404     -3.34630304896781     -3.82300341680635
  H   3.03396313547191     -2.01181114376962      0.18210773695758
