22
Coordinates from ORCA-job 21031optt
  Br  1.13438769377773     -0.41169638510155      0.34011362678916
  C   2.96081329383449     -0.12069331665313      0.14074349255517
  C   3.57870887038360      1.10109153401311      0.16854890063810
  Br  2.52861991924327      2.63490435010783      0.47886799135207
  C   4.99816013427341      1.19821504306850      0.01324867334778
  C   5.73906879277658      0.05927948928330     -0.16181673199938
  C   5.10200803600979     -1.18965928864178     -0.18157960938846
  N   5.55773014385908     -2.42553551206027     -0.33418141773932
  C   4.43877182119224     -3.16444309525737     -0.27403451937044
  N   3.30449761575434     -2.50173291419945     -0.09693606093503
  N   3.73017068936421     -1.23149924592044     -0.03645445145001
  C   5.75049089951563      2.46385581790564      0.06022040889930
  N   6.94308535380396      2.52048474719258      0.55235229600463
  N   7.35019159490175      3.80474982946161      0.33552448624287
  C   6.38957176645627      4.59592386908922     -0.26146670155853
  N   6.33652227169270      5.82263681997900     -0.58924764875484
  N   5.37244194791216      3.67484800320676     -0.46344144946955
  H   6.81013885289041      0.11191287104614     -0.28470703202818
  H   4.43519997118054     -4.23920391634882     -0.36228294275963
  H   8.21316805166885      4.12197696650522      0.73769668757315
  H   7.19029139430174      6.31745330623260     -0.35746733595542
  H   4.48296088520717      3.92513102709129     -0.85770066199340
