26
Coordinates from ORCA-job 21038optt
  Br  1.10792480169903      0.69301218595244      0.29662503354800
  C   2.93138688324198      0.29640543799469      0.13593039708171
  C   3.59005217929476     -0.62428368089213      0.87553801026064
  Br  2.75030209271263     -1.66777399300248      2.19221581107866
  C   4.99232057239604     -0.78786052868567      0.64236908254766
  C   5.64334450997959     -0.07736763191257     -0.30019720564103
  C   7.12979115889021     -0.17826873268577     -0.51931797789327
  O   7.71214560601506     -1.18259524320141      0.29758317468004
  C   8.84514490954575     -0.70460346453004      1.05290654670035
  C   8.85295812632128      0.76624457444723      0.79715691883423
  C   7.87232793859817      1.05192588280690     -0.09653784975938
  N   7.83974699796757      2.39199023095928     -0.32139362914119
  C   8.82240138719689      2.97149475605373      0.44383841940800
  C   9.47642377380596      1.99060083066351      1.15190819955209
  C   4.93337418241884      0.88110664634058     -1.13415896190129
  N   5.38431229597181      1.60920602958390     -2.09072161888527
  N   3.59036343624744      1.01664926296149     -0.81239254950261
  H   5.55011702714871     -1.49260378866588      1.24530251955093
  H   7.31172054935761     -0.42970909708347     -1.57496264347063
  H   9.74299986359053     -1.21543318938579      0.69518912824800
  H   8.68866397275821     -0.96795485231472      2.10090898947884
  H   7.16203013739292      2.87697089562508     -0.88825106441840
  H   8.97635677306364      4.03690694462744      0.42501334008654
  H   10.29328309734997      2.15393004343277      1.83456533981588
  H   6.35075280542870      1.38562093998482     -2.30256800760530
  H   3.07675492160663      1.68138954092608     -1.37454940265322
