24
Coordinates from ORCA-job 21035optt
  Br  1.10756122072286      0.60495978864888      1.16162118414705
  C   2.82627101930891      0.15803998106724      0.53649413314605
  C   3.45327209491876     -1.03643462937250      0.86376443542547
  Br  2.61989024751385     -2.31376159320818      1.97209109560768
  C   4.73489411214679     -1.28583419609872      0.34931253525803
  C   5.47226205595879     -2.56022404287324      0.64786886660038
  C   4.88826878811323     -3.74755844820106     -0.06277040694829
  N   4.14942827457292     -3.59185092683196     -1.09161814205138
  N   3.64593132894202     -4.67116440436650     -1.71042779093085
  C   3.82325961137367     -5.99175674814516     -1.34201209011853
  N   3.34009302053130     -7.02088364274425     -1.89945789466683
  N   4.63422990966389     -6.12213356870228     -0.22700711777518
  C   5.20683494084610     -5.09446369275029      0.48023381553220
  O   5.89646265361777     -5.27684509782153      1.45376705268003
  N   5.35622718288626     -0.41105483723926     -0.43196362347589
  C   4.74654792221317      0.72941112392042     -0.73741811577767
  C   3.48505052966738      1.06293132950109     -0.28277607696471
  H   5.47591175004475     -2.77940873894557      1.71682410121609
  H   6.51046042410119     -2.42991859431703      0.33878341330879
  H   3.05362688672469     -4.46550298471742     -2.49659812863238
  H   2.76230914627032     -6.79835413547929     -2.70316201185127
  H   4.80524601036094     -7.06820151800472      0.08796254801716
  H   5.29412173553421      1.41102979684050     -1.37781941541590
  H   3.01983913396620      1.99997977984088     -0.55169236633006
