25
Coordinates from ORCA-job 21042optt
  Br  1.05654592794355     -0.18264230480498      0.54603035199042
  C   2.93183864043040     -0.13052374119531      0.33832813136029
  C   3.70135873196932     -1.28759249281940      0.25180342876628
  Br  2.85189287992216     -2.97277640917182      0.31660562429408
  C   5.09314043442753     -1.19072477238247      0.10402841316032
  C   5.66646738895498      0.07204983279882      0.02554686667795
  C   4.89582441309234      1.22136086310100      0.10601217936266
  C   3.52877240714308      1.12189744059909      0.26870489980615
  C   5.95925792965010     -2.40854267855822     -0.01787160383275
  C   7.48646251439111     -2.21832340361635     -0.13581816155570
  C   7.96401640601787     -3.62445474898036      0.23192860009623
  O   9.07428732911061     -4.05965583386867      0.17956759683415
  C   6.68451272811225     -4.35740333297564      0.63657245648698
  C   5.98950596068253     -4.74998313190089     -0.67557707838076
  C   5.61222888089587     -3.36370762736255     -1.18937294683236
  O   5.23028767254092     -3.04719862509158     -2.27309787881213
  O   5.87894252388321     -3.28167151916263      1.11637873794583
  H   6.73421554211493      0.16423995710864     -0.11187221715282
  H   5.36267477550305      2.19450713606888      0.03777128272833
  H   2.91017661123658      2.00600766515818      0.33174595520334
  H   7.83767041200068     -1.52653624659645      0.63186733226841
  H   7.85358542665889     -1.90630453574608     -1.11204436013418
  H   6.80455375008856     -5.12935386934759      1.38839775453044
  H   5.08146479450158     -5.31746976611474     -0.46936664242716
  H   6.60731591872781     -5.28919785513885     -1.39126872238400
