24
Coordinates from ORCA-job 21040optt
  Br  1.02388876056026     -0.20239952090230      1.13957754603566
  C   2.81524100798897     -0.09699487150070      0.62546376252988
  C   3.49718769401390      1.04250760805571      0.41929990539096
  Br  2.67340263450651      2.72237887066198      0.60533597654990
  C   4.90124752967296      0.94510296260536      0.04927786412801
  C   5.68192179562485      2.21533328367989     -0.14964439644975
  C   7.17045759729331      2.05711427977771     -0.35314092237008
  O   7.46945945064497      1.42595117180033     -1.61293176702353
  C   8.35525947123877      2.22717992757752     -2.24030351696562
  N   8.68692336427887      3.32390284986950     -1.71681560732052
  C   7.90829796475380      3.42138953475898     -0.47737002846501
  C   8.75202936699711      3.70363120005310      0.68712854997808
  N   9.37635000172690      3.89955295677038      1.62665813064985
  C   5.44065466771176     -0.27734534940243     -0.09623760030607
  C   4.67618707355184     -1.49574844858327      0.11085704059877
  N   5.02986106197881     -2.69779127513928      0.00118402941127
  O   3.35288602103641     -1.30846926138351      0.49054871588763
  H   5.53331762631880      2.85384319763805      0.72666402072555
  H   5.25902008552422      2.76619698584390     -0.99620976501220
  H   7.61263623080059      1.44481230877157      0.43508365649976
  H   8.72261034238564      1.85225275093573     -3.18679004770850
  H   7.19673611651846      4.24690056685813     -0.57258267617464
  H   6.47066576965048     -0.40934274807168     -0.39588663886596
  H   6.00475836522171     -2.76195898067469     -0.27516623172341
