23
Coordinates from ORCA-job 21051optt
  Br  4.86321239162811      2.75028268496719      0.19037555146811
  C   4.43156707464411      0.91577351275830      0.25003267103002
  C   5.36179425484220     -0.07204612714060     -0.05874834302471
  Br  7.13112122902413      0.39305149301080     -0.54535527215488
  C   4.99845603871929     -1.41972828014277     -0.00874874385411
  C   3.70284381280253     -1.75637436227978      0.35765234001444
  C   2.78055146823951     -0.77098087810303      0.67357170012839
  C   3.14049004261187      0.56277498641625      0.61974641916598
  C   6.01591044777107     -2.49653810961117     -0.29967829716438
  C   7.00952210356807     -2.72611304972236      0.85811445996856
  O   7.15068737341946     -4.14421819414728      0.89142989984637
  C   5.91213708192062     -4.63581886366128      0.51797435419131
  O   5.39096812003735     -3.77807485507991     -0.45266659944124
  C   4.97692988442472     -4.67540322408184      1.69072382774387
  N   4.24685098304966     -4.64892547713634      2.57140418881732
  C   6.06417269054444     -5.99733729026685     -0.04023136867601
  N   6.17150997122926     -7.05277749164364     -0.46531301900744
  H   3.41836286132406     -2.79819920747140      0.38916385269830
  H   1.77458681130349     -1.04457416288372      0.96110056374209
  H   2.42881502046025      1.34046756072816      0.85873767192093
  H   6.54168955264741     -2.28576511775763     -1.23057948151890
  H   6.59985736787096     -2.36357965564423      1.80496558112583
  H   7.98996341791728     -2.29689589110683      0.68232804298015
