22
Coordinates from ORCA-job 21059optt
  Br  1.02170054291412     -0.30222802866170      0.41379773580786
  C   2.87929712890594     -0.11928585498675      0.17661683274807
  C   3.51120550403461      1.12488675752409      0.19336892183001
  Br  2.50896802321344      2.70501586289629      0.41001174190373
  C   4.89760361342134      1.21417727377618     -0.00003136062813
  C   5.62109072495807      0.04462016054782     -0.20288129843960
  C   4.98539534085687     -1.19098436346394     -0.22758631645888
  C   3.61280706292720     -1.27623567019975     -0.03408886229179
  C   5.75086377573374     -2.38460669431491     -0.44818037189835
  N   6.36655000680217     -3.33494102573318     -0.62978340792057
  C   5.61698178591424      2.50933836374998     -0.00442241118768
  C   6.45431476574932      2.81984443228250     -1.00846220438648
  S   7.37243546389841      4.26894436974049     -1.08681909702988
  C   6.65108619301367      5.22513409565623      0.25915179546747
  N   6.75528829223294      6.48033506780866      0.29098453415760
  N   6.03684467503534      4.54411107225012      1.30316782426116
  C   5.54832641091735      3.37382788236900      1.16799074526568
  H   6.69421562959024      0.09844342670654     -0.32717124176866
  H   3.11598012850416     -2.23579519427934     -0.04780570846349
  H   6.60916757174511      2.14717704685702     -1.84466535172018
  H   7.19513159740158      6.85903342399793     -0.54459416171179
  H   5.06774576223004      2.95218759547668      2.04940166246390
