23
Coordinates from ORCA-job 21067optt
  Br  1.23501999021247      0.24312642300500      1.01242033125330
  C   3.01340684065423      0.21580184514905      0.36837471341867
  C   3.80108876247090      1.35934487521570      0.44362825701698
  Br  3.13303032478043      2.95077807156926      1.19269061804168
  C   5.11659195765372      1.34635860717156     -0.03605607777486
  C   5.60378326955091      0.16182994843927     -0.58424639201080
  C   4.83337647126076     -0.97838031220943     -0.66017604820480
  C   3.52161382099584     -0.97622631954892     -0.18308579965647
  N   2.69029363349860     -2.09008363695527     -0.22935600501915
  C   2.89283756376531     -3.35849640020381     -0.68143485035310
  N   4.06649543211825     -3.74965554745750     -1.17534520404948
  C   4.10181570701426     -5.01427700901194     -1.57504333630070
  N   3.10619003159346     -5.88486230815063     -1.52319288739298
  C   1.98314776573414     -5.38050199992930     -1.00748146547772
  N   1.81122147553713     -4.14974690620532     -0.57575796879258
  C   5.96299553178489      2.49422734462572      0.01834421593230
  C   6.70919523344628      3.43197331177343      0.04269865590003
  H   6.61848728497687      0.14775069931529     -0.95743404692843
  H   5.23485319612226     -1.88168315639272     -1.08538657168408
  H   1.75066409926504     -1.96038075518222      0.12032057949051
  H   5.04431682146955     -5.36478123764755     -1.98317373130955
  H   1.12939010010412     -6.04655895719121     -0.93960416697085
  H   7.35818468599054      4.27444341982156      0.07029718087208
