26
Coordinates from ORCA-job 21066optt
  Br  1.46847344902346      0.45517226942115     -1.75072481534615
  C   3.10516282619693      0.15480470859621     -0.86468468821600
  C   3.74365066452783     -1.08345414332936     -0.90312926555996
  Br  3.04652590096841     -2.52106964772277     -1.90085119403114
  C   4.94907105194950     -1.24583642564527     -0.21153504108775
  C   5.51760623284903     -0.17981789113050      0.46829146677089
  C   4.88613031330974      1.05156845017379      0.47994194058277
  C   3.67745861962336      1.21597908398733     -0.17584979458473
  N   5.61982361164321     -2.48919462659265     -0.20330529692075
  N   6.79696638906011     -2.64580966009328     -0.86612886748711
  C   7.11075311656563     -3.90814854296353     -0.67689180529200
  C   6.16050883228384     -4.59332742852915      0.11057345615243
  C   5.21526906012985     -3.63286966990728      0.40412093759920
  N   4.08798088260246     -3.67779452059907      1.18462433961192
  C   3.46629610672486     -4.94756548896375      1.41532336979683
  C   2.03841809689292     -4.75099384860866      1.84787389882619
  O   1.50839580790569     -3.67659044351638      1.88202721789276
  H   6.45940776329333     -0.34160751185753      0.97454749582870
  H   5.32907105446358      1.88516138291378      1.00742630971685
  H   3.16687505669225      2.16872322055815     -0.16309441795975
  H   8.01857574589073     -4.29798166725290     -1.10974883873499
  H   6.17404697534554     -5.61787538454977      0.43766017438671
  H   3.42039787383340     -2.92389950669281      1.07784266063522
  H   3.98375304029071     -5.52329404661672      2.19247188990358
  H   3.45052574454805     -5.58267178638034      0.51523443772807
  H   1.49285578338545     -5.66960687469864      2.12598442978820
