29
Coordinates from ORCA-job 21062optt
  Br  4.31750910417897      1.68003693463608     -3.63249477864926
  C   4.11275222697417      0.23571202189392     -2.43425607918881
  C   5.20081866423802     -0.50409666479021     -1.96815861579470
  Br  6.94230573117191     -0.06752398099433     -2.55927411771735
  C   4.97987911899579     -1.58302274323519     -1.10576207013630
  C   3.67465403061874     -1.89486973869008     -0.73303871157608
  C   2.60360852007326     -1.14369531863680     -1.17969660576449
  C   2.82219726720652     -0.07514932295566     -2.03081497075605
  C   6.06634558388316     -2.43312609516876     -0.51797882427616
  N   7.17045252641628     -2.07058965546831     -0.02838596260252
  O   5.67867740635381     -3.71922390982110     -0.50504948013685
  C   6.58158868830838     -4.68868531587095      0.06343905270201
  C   6.45704975641686     -4.68432977625371      1.58247583136494
  N   5.16764703740561     -5.17498505940055      2.04720321575704
  C   4.85366264507294     -6.45755853029382      1.42538512083580
  C   4.96148501545327     -6.39806380262844     -0.08802125848060
  O   6.24208508395066     -5.91508178507810     -0.48561193889410
  H   3.51517945489741     -2.74372178526045     -0.08294831419619
  H   1.59656348044502     -1.39075059461210     -0.87249338929493
  H   1.99759330634625      0.51971810152431     -2.39758406548811
  H   7.31221038411635     -1.07102780722679     -0.12052403353710
  H   7.59271631159355     -4.45133601555662     -0.26136719074344
  H   6.63688255930369     -3.67990694059632      1.96098984930266
  H   7.23832126688986     -5.34003940680077      1.97621120217865
  H   4.44470271545050     -4.49868654982081      1.82506177405666
  H   3.85173824176024     -6.77143848735432      1.72179835416409
  H   5.56323445272682     -7.19553162071263      1.81006916425821
  H   4.18463043339653     -5.74541956647056     -0.50154175917738
  H   4.86350898635539     -7.38460658435689     -0.53963139820965
