23
Coordinates from ORCA-job 21072optt
  Br  1.02387161371819     -0.31453650682189     -1.07116676498381
  C   2.84525672313129     -0.36249353310956     -0.56721990484732
  C   3.58057790443227     -1.54219060466889     -0.66909818219218
  Br  2.83457564145535     -3.14383027791850     -1.30015042113378
  C   4.94103335520444     -1.51138019110243     -0.29487216707821
  C   5.78649627733236     -2.65868073806486     -0.36646574681164
  C   6.53543072042730     -3.59232653193839     -0.40861925896260
  C   5.44858954857158     -0.30766068493042      0.14485544319861
  C   6.80580184664431      0.10143591662439      0.61555835774921
  O   7.02349421801692     -0.29638949175092      1.97349060024933
  C   7.36514420134786      0.74952067813314      2.76650852071929
  O   7.59352468450967      0.62375545237451      3.92537734281115
  C   7.42720652414321      2.01839975543767      1.93334210080523
  C   6.71508241554943      1.65404764118125      0.64458118535328
  N   5.27364664612676      1.90210934828756      0.68140285475273
  C   4.60369165940027      0.80066199536194      0.20604295596514
  N   3.33199799422373      0.79332953671380     -0.14011218467543
  H   7.18265484150322     -4.43668165396408     -0.44103154195122
  H   7.62606774451073     -0.28319107725726      0.01071611507822
  H   8.47999020502101      2.25020939101908      1.76110537948628
  H   6.97531103070187      2.84622906646767      2.47304451403710
  H   7.17016895278566      2.09566831624291     -0.24351715698908
  H   4.90838525124250      2.81699419368328      0.46722795941969
