22
Coordinates from ORCA-job 21075optt
  Br  0.93758714021182      0.16760703702895     -0.22101325304331
  C   2.80175091693969      0.01533221735454     -0.11641867914599
  C   3.44644036480726     -1.16425277755847      0.02307638394011
  Br  2.47475113444818     -2.76581320914625      0.19763349311875
  C   4.91005214206228     -1.28235620847412      0.04691323550859
  C   5.49668964432992     -2.57740699183663      0.12412357633460
  C   5.95624199251080     -3.68039260240082      0.21985525457649
  C   5.65566627657998     -0.14102074180293      0.07636924271469
  C   7.11364742559030     -0.04212429911652      0.15274356941215
  C   7.66661862278537      1.12563137827360      0.53492239295633
  O   6.95857245293866      2.23808862013732      0.81662472798523
  C   5.65138788770875      2.23556698795211      0.51668212112082
  C   4.98804759613037      1.14846433323199      0.08795148235964
  C   3.55554573080247      1.26679235649908     -0.27160962332654
  N   2.97833270182799      2.32876229318750     -0.67190498924363
  C   8.02290200349123     -1.08352420550037     -0.20667474598001
  C   8.84769625845289     -1.88213049075160     -0.54745490347522
  H   6.37615655281062     -4.65384065216602      0.30537875333897
  H   8.72937092871856      1.27578135345265      0.64475930426457
  H   5.19469597323051      3.20102383231380      0.68176796667205
  H   3.64076157264472      3.08883762619937     -0.81338548065442
  H   9.55908468097754     -2.61402585687716     -0.84733982943387
