20
Coordinates from ORCA-job 21082optt
  Br  0.96775729392033      0.15610979122244     -0.00800782943428
  C   2.85604481653597      0.09876988447494     -0.00824548335528
  C   3.62636140732367      1.27475911900541     -0.00822069998512
  Br  2.79198426552917      2.96299795287168     -0.00800982911474
  C   5.02367176931272      1.22560338478505     -0.00833668456685
  C   5.84059898570255      2.39205780830578     -0.00823796961370
  C   6.55775018765082      3.35184244711109     -0.00813447118938
  C   5.63071280634534     -0.04003461434633     -0.00849994937684
  N   6.97276110821901     -0.35098470536766     -0.00859647927950
  C   6.98033739812407     -1.65163237493059     -0.00872018540867
  S   8.21263569574317     -2.86681622786281     -0.00882267718566
  C   6.98877654954596     -4.11196660254859     -0.00931208770404
  C   5.74147939171514     -3.62248570616704     -0.00897440175063
  N   5.73243083770699     -2.23884404149237     -0.00874144770420
  C   4.82656613868502     -1.19717024463960     -0.00853343907546
  C   3.44420219741943     -1.15431952600167     -0.00841466647485
  H   7.18764807300252      4.20896199647290     -0.00804581179139
  H   7.27239529025768     -5.15024081573943     -0.00965657254173
  H   4.81828218058311     -4.17854862487428     -0.00904440079690
  H   2.83360360667729     -2.04605890027892     -0.00844491365078
