24
Coordinates from ORCA-job 21088optt
  Br  1.12677462948438      0.16219912763376      0.12477326440922
  C   3.00758969556618      0.02026273201361      0.10325258608519
  C   3.66129615639501     -1.20661229438911      0.14751591372877
  Br  2.70777693210173     -2.82187039980608      0.26730572929114
  C   5.06270097128286     -1.25049796849074      0.10880877147897
  C   5.78247021638493     -2.48143931019700      0.11308291705695
  C   6.39855343859889     -3.50881791661826      0.10967725822288
  C   5.78842132273737     -0.05507073901455      0.05300364826622
  O   7.14133954008880     -0.12661709229875      0.02736241506436
  C   7.78319898638104      1.08337367214435     -0.33297520369202
  C   7.15024100606955      2.24409359360959      0.40892001372845
  C   7.78404734688065      3.58604637056077      0.06893182654647
  C   9.16191045528079      3.65479849558982      0.54609918991237
  N   10.24032855575631      3.67071065501798      0.93065313629012
  O   5.78821706005192      2.35456733268618      0.03082530713763
  C   5.11599711894692      1.16558117463345      0.04550140627367
  C   3.73468392179160      1.19815934376652      0.05316781764011
  H   6.94364519167553     -4.42259685513608      0.10543198263902
  H   7.68822451659508      1.24668383053838     -1.41216736398157
  H   8.83330522273271      0.97082450770681     -0.07056540613057
  H   7.21238745685435      2.05678967141574      1.48646609653362
  H   7.20235330672666      4.38271047144379      0.53350483377133
  H   7.76449455770494      3.74370367481392     -1.01111238326592
  H   3.23404239391166      2.15601792237587      0.03453624299357
