22
Coordinates from ORCA-job 21089optt
  Br  0.97675847713173      0.14790804068204     -0.03563690806835
  C   2.83260057170109     -0.09267725674284     -0.00562396255433
  C   3.45373255546745     -1.29774731224033     -0.01558968880138
  Br  2.49031272454520     -2.90284777689840     -0.10865091555124
  C   4.89694627529290     -1.34069893808893      0.03789568646078
  C   5.59345111968342     -2.58184541266327      0.06631669510294
  C   6.21373782525900     -3.60681903003471      0.09593646895867
  C   5.59331367083590     -0.16683220204030      0.06168169099138
  S   7.30276665567481      0.04628984424637      0.10750263395310
  C   7.11125451222763      1.87163118947813      0.07366330188368
  O   8.06123213844089      2.60760600684436      0.08213662317361
  C   5.70995748912402      2.20867162448473      0.03610951872172
  C   5.30133153184072      3.65194881505028     -0.03652013364460
  C   4.10248238290305      3.95828114529099      0.74432148650624
  C   3.10578028888376      4.17837411534407      1.37331710923779
  C   4.91047045062658      1.10407468731043      0.03803556262165
  N   3.54746537657562      1.07017585850037      0.02210533473317
  H   6.76165227144936     -4.51894478425499      0.12422415203809
  H   5.13168709136216      3.95612783828482     -1.07477249328974
  H   6.13792011613432      4.25410207485628      0.32563299910121
  H   2.23779880600016      4.40041025554324      1.94768674460179
  H   3.04734766884016      1.94781121704768      0.11622809382381
