25
Coordinates from ORCA-job 21096optt
  Br  1.13458071466151     -0.34215729115099     -0.36490658782847
  C   3.01405844614957     -0.24830619352740     -0.18256762733898
  C   3.68676681389778      0.98394245877235     -0.16849005754098
  Br  2.74040665846144      2.60675315796363     -0.35259444434746
  C   5.07358895457047      1.04312463287714     -0.02497370067755
  C   5.86881642971811      2.32579643293584      0.02481007068888
  C   6.05288600447121      2.92113793463020     -1.29819354486887
  C   6.20829923360849      3.40050315439529     -2.38389576761443
  C   5.71096828061065     -0.17696389931038      0.07566708214250
  O   7.06159354541385     -0.34409016669892      0.20364037701562
  C   7.27384915125612     -1.68753658828550      0.24957520623521
  N   8.57413970785119     -2.09448187229292      0.42820920729163
  C   9.72344345966791     -1.49305223539761     -0.08609797235295
  N   9.85089218744036     -0.43352747065126     -0.75237720358727
  C   6.12341975797794     -2.39705564292151      0.16885584376076
  C   5.07631287533512     -1.41772833659167      0.06004814774037
  C   3.69264912987563     -1.44982607238396     -0.06701680088768
  H   6.84602765199461      2.11944821054758      0.46350729030793
  H   5.36208780391989      3.04289996512964      0.67327179352429
  H   6.34241404977860      3.83144815145331     -3.34701809899214
  H   8.68171601305699     -3.02989358463948      0.78382526600037
  H   10.60856089756744     -2.07315956633479      0.17064341041363
  H   8.96750347475905      0.03724897449549     -0.93438497226319
  H   6.03575308812372     -3.46974179792959      0.16346638259658
  H   3.14426566983224     -2.38078235508451     -0.08300329941780
