24
Coordinates from ORCA-job 21097optt
  Br  1.01510018387703      0.50796661426398     -0.12068844705972
  C   2.88597855108414      0.28162396727924     -0.20404699793183
  C   3.76692869504389      1.34233615598099     -0.01027771358355
  Br  3.17976225630162      3.09162411228899      0.38017761549392
  C   5.12929275275097      1.11061874747860     -0.09847938226272
  C   5.63223310469024     -0.16230842686684     -0.35617759234929
  C   7.04508456563355     -0.36539430794096     -0.41331955865574
  C   8.23530288627155     -0.50638304660319     -0.44999068600332
  C   4.74554107717509     -1.24120728188644     -0.52543352836694
  C   3.37500617104597     -0.98791045070808     -0.46625903475145
  N   5.24243712956781     -2.50358479417021     -0.82117176920028
  C   4.95098458483637     -3.51738642226170     -0.09359073903924
  N   5.38787546781548     -4.76084505741999     -0.49871085264669
  C   5.15094855936600     -5.89931372946911      0.20532091868516
  C   4.46112568604215     -5.83773335286912      1.36348353790103
  N   4.01406238773276     -4.63449243099092      1.85400812354185
  C   4.23572151047891     -3.55919305965626      1.18469669384987
  H   5.82052366512965      1.92941196244659      0.04372672307995
  H   9.29047476024140     -0.63405720378085     -0.48535341314653
  H   2.68082969026214     -1.80125586496853     -0.63296830003430
  H   5.91400239816421     -4.78031425914577     -1.36119688333562
  H   5.54136514770333     -6.81731469267645     -0.20876626536560
  H   4.24947748984183     -6.72048591981614      1.94593000335194
  H   3.88994127894385     -2.61740125850781      1.59508754782909
