23
Coordinates from ORCA-job 21092optt
  Br  1.18171872896493      0.20183963466665      0.27033076065051
  C   3.06566975526096      0.03675856338657      0.16676806600358
  C   3.68147650509507     -1.21891120849852      0.13331283697915
  Br  2.67767007587372     -2.80871836832814      0.23190285140623
  C   5.07645027541805     -1.29211367954640      0.03598501535739
  C   5.81858494962313     -2.60757831001323     -0.02027393283571
  C   5.93927347310762     -3.21650618821191      1.30361562697164
  C   6.03564327727598     -3.69632117597757      2.39572152616967
  C   5.76680530684319     -0.09530316236408      0.00956984581646
  C   7.25931260736474      0.15693137873342     -0.05625735347609
  C   7.30082348359691      1.66424021958606     -0.03914375011095
  N   8.29857412159659      2.50051329280982     -0.07647609882258
  S   7.68469543364211      4.02854473528998     -0.02898819979173
  C   6.04402786622986      3.57483191660439      0.04021528085638
  C   5.99117476828234      2.21285947227695      0.02671091303726
  C   5.04407347208347      1.10568029987342      0.06061446194194
  N   3.72465849630517      1.17642027947287      0.12980067005101
  H   6.81572163322598     -2.43898705929279     -0.42965438836721
  H   5.30128778379656     -3.29783995549596     -0.68908431590207
  H   6.11876201464672     -4.13125206050340      3.36298830960241
  H   7.71239558276229     -0.24513564698297     -0.96530470617827
  H   7.78710137084426     -0.27723759605925      0.79588724258975
  H   5.24209901816022      4.29428461857410      0.08675933805121
