23
Coordinates from ORCA-job 21094optt
  Br  1.01709977447578     -0.47939383433620     -0.61471773611731
  C   2.86143231873316     -0.16648320503176     -0.37440427636099
  C   3.45419286188803      1.05789943154769     -0.66844412525891
  Br  2.38263659719429      2.48294985618081     -1.29466936732202
  C   4.83407017742855      1.27696963001469     -0.48288453218829
  C   5.41091958857088      2.67025661135990     -0.60899878790427
  C   5.05405517881234      3.47209872783338      0.56221532833046
  C   4.77106790157722      4.10451021515575      1.53879593327988
  C   5.58010905958095      0.18478522953874     -0.06199315589485
  N   6.95728151177796      0.01166943155245      0.23143025622135
  C   8.08865847040174      0.59131306310871     -0.34413051690316
  O   8.07442645524855      1.44649827856317     -1.18121013515832
  C   7.15178906184402     -1.26397564050547      0.83925151033028
  O   8.19204172957179     -1.71187197137601      1.23622241180953
  N   5.91855474839750     -1.85750675323481      0.83130066521993
  C   4.95697454255299     -1.01671816728513      0.29633418877343
  C   3.60803602176767     -1.21875323288881      0.14447959203020
  H   5.02732028024321      3.15003088371544     -1.50982333798988
  H   6.48960147169800      2.62611676864994     -0.70603000490856
  H   4.51592956905200      4.67482998796239      2.39960679853776
  H   8.99922938004638      0.13419275962076      0.05893525438720
  H   5.77011540734741     -2.77610906790711      1.21322769618741
  H   3.13445789178945     -2.15130900223856      0.41450634089913
