20
Coordinates from ORCA-job 21091optt
  Br  0.78650512819686      0.73254605900849     -0.40102746469790
  C   2.64319758642931      0.51034689620657     -0.24210261435014
  C   3.52345820296384      1.52001665755319     -0.16673293078614
  Br  2.91502613392644      3.30253803312667     -0.19392820096166
  C   4.96695341350564      1.30018524706989     -0.06180816370433
  C   5.80957243146157      2.45088300802521     -0.03969789075456
  C   6.52120337610382      3.41447340911590     -0.02841680549619
  C   5.52610403831631      0.05864114675172      0.00737090344044
  Br  7.39003968497968     -0.10509922701930      0.15936146963958
  C   4.80668470366921     -1.21212389896189     -0.02357382680664
  S   3.04585192104708     -1.17048846031505     -0.20193670430256
  N   5.44250700032267     -2.31102482445464      0.05884344905698
  C   4.98606008697183     -3.59342519201164      0.05441369797806
  C   5.84202393187380     -4.66814011004515      0.10365905906252
  N   5.27563623763480     -5.89848942998691      0.10388494656658
  C   3.98175563677332     -5.80702969697061      0.05766847072670
  S   3.34979684668558     -4.21577796982506      0.00628156929164
  H   7.15184569585910      4.27180319195435     -0.02135620194237
  H   6.91504979275195     -4.55146901038649      0.14100872588230
  H   3.31872815052710     -6.66036582883522      0.05208851215769
