21
Coordinates from ORCA-job 21095optt
  Br  1.06609832950185     -0.19488438823978     -0.05671146419048
  C   2.91678621492041      0.07414171045673      0.01320176840188
  C   3.51335889857425      1.29272101180094     -0.02390140181332
  Br  2.51816832657458      2.87331647074665     -0.18134907336895
  C   4.95282983862566      1.34310852936838      0.02773289259143
  C   5.59699288202342      2.61566406052592     -0.02251873470053
  C   6.11642530957481      3.69312663908274     -0.06309946177374
  C   5.68683321301826      0.18999390053551      0.10374628979738
  C   7.14876752033639      0.18640197914886      0.12588937683201
  N   7.91546908428483      0.79919098496653      0.93806376815443
  N   9.17589254147165      0.50010617850936      0.48503078706456
  C   9.14514640365818     -0.39467604602804     -0.56472684473075
  N   10.01859442761083     -0.98861029595454     -1.24416708322817
  O   7.80371546734340     -0.53699502201280     -0.82019333748619
  C   5.04804567173300     -1.11760086712218      0.17207185393251
  O   5.61005159647556     -2.17996361515723      0.29663454060212
  N   3.65441879436840     -1.05952519495198      0.10464974638926
  H   6.58407767705851      4.64859526507374     -0.09490681109661
  H   9.96021665926740      0.65393736902898      1.09266878319288
  H   10.95789517601761     -0.76047681718606     -0.93836912899720
  H   3.18721596756078     -1.95557185259174      0.15625353442748
