23
Coordinates from ORCA-job 21108optt
  Br  0.98492936012589     -0.59678376292364      0.48248104478911
  C   2.79966764940989     -0.28104652332323      0.16352199183238
  C   3.38718093339404      0.92912090393102      0.32208551836382
  Br  2.38467141473091      2.39314572274481      0.96693113823723
  C   4.79574649170674      1.13032357662107      0.05688065850149
  C   5.48068260934001      2.46176879315100      0.10493361568864
  C   5.60053654186590      3.14118158555974     -1.31218315223500
  C   4.29428469208975      3.27075453678664     -1.96834771495038
  C   3.22411153318805      3.34457955931683     -2.49165747252560
  C   6.22083072233141      4.46803842128422     -1.12746374605817
  N   6.70737309323190      5.48357754470516     -0.92519883457844
  C   6.49136122130737      2.31619679228094     -2.15487237512074
  N   7.18136963586270      1.63061292277512     -2.75800505423296
  C   5.50371119923595      0.03128335300648     -0.28811355853615
  N   4.92901798254439     -1.18758131887648     -0.42114094469945
  C   3.56880427823936     -1.45891898839976     -0.26264686037681
  N   3.03181938902578     -2.59737523364231     -0.43928758581843
  H   6.49744012742304      2.36270201414681      0.48539064351780
  H   4.94891382156358      3.16361156064691      0.74249415422174
  H   2.26511338364727      3.41523971844213     -2.94926968344873
  H   6.56574998883953      0.07246501833248     -0.49019302541804
  H   5.51301236512606     -1.96465698746738     -0.68908983336420
  H   3.70467156577042     -3.30523920909859     -0.72424892378909
