24
Coordinates from ORCA-job 21118optt
  Br  1.11485552049233     -0.08148759476566      0.78169738311667
  C   2.91414796483232      0.08327225036655      0.29279477971525
  C   3.48695619286815      1.21468811490107     -0.18190136810147
  Br  2.53290286971074      2.81084933666758     -0.43646640273885
  C   4.88034499452333      1.18743623216874     -0.48594205440738
  C   5.63811969653181      0.07777467178496     -0.31078126423473
  C   7.11403722437855     -0.01814372190914     -0.60987847406622
  C   7.35677366248222     -0.62355088273179     -1.99000170090919
  C   8.83485460583331     -0.82588627180948     -2.22039301681767
  O   9.66805524741038     -0.45780873702595     -1.43222785192707
  C   9.19957950646601     -1.49527963722214     -3.46373539960388
  C   9.47098685876453     -2.05235063749031     -4.48846096659855
  C   7.76525583885179      1.34506603267214     -0.49110174003270
  O   7.72347445154756      2.16443817377447     -1.36681433047392
  C   5.02212188247689     -1.15605548759014      0.16266702976355
  O   5.59364787252678     -2.21831170904976      0.30958356066581
  N   3.66410052172332     -1.04216521570714      0.44679785467704
  H   5.33038252901158      2.09596331327709     -0.86786606301737
  H   7.55491185241515     -0.68119611166064      0.13692419214326
  H   6.97635048497798      0.03410197460153     -2.77678889098713
  H   6.84708226599597     -1.58514754992214     -2.08810116852587
  H   9.72489248877219     -2.54864499350372     -5.39578804368148
  H   8.25176015437108      1.56833415823835      0.47375338101397
  H   3.22440531303595     -1.88789570806447      0.78603055502797
