23
Coordinates from ORCA-job 21128optt
  Br  1.36559599477966      0.00821484047988     -1.08942802042027
  C   3.14282699559892      0.10590480975607     -0.51505006846226
  C   3.71156118899046      1.21735873873058      0.01035083931168
  Br  2.76367243056770      2.81567581988577      0.24861514060280
  C   5.11172639449846      1.15085434458010      0.35836597060120
  C   5.78502230289557      2.32007876472201      0.82225388730431
  C   6.38349027441843      3.28630487917449      1.19914686627374
  C   5.80575456635000     -0.01776426759701      0.22594814714172
  N   7.17876290804644     -0.10494435768680      0.53770781541168
  C   8.12966906946310     -0.17825638462425     -0.56042180894523
  C   8.21873118991963      1.09837364544478     -1.28709716069453
  N   8.26192578023098      2.08885533541165     -1.85977603413371
  C   7.65372167874692      0.22390189963828      1.78898138859041
  O   8.81919773733441      0.36105796113555      2.04481562540123
  C   5.16892524752692     -1.23591698335310     -0.26777997755295
  N   5.66287641273465     -2.40463652703951     -0.38167647546599
  N   3.84972358484501     -1.04263055083224     -0.66704412685459
  H   6.92011318803699      4.14979103868774      1.51574023148732
  H   7.82676163956150     -0.95710772850343     -1.26158669471791
  H   9.10588327655285     -0.42183276627956     -0.14361432521996
  H   6.84684136503930      0.31855019965091      2.52923048498366
  H   6.61172927030882     -2.43741224056172     -0.02261348584180
  H   3.38748750355312     -1.86642047082022     -1.02806821880054
