22
Coordinates from ORCA-job 21121optt
  Br  1.25914903563262     -0.04412513328991     -0.35658579842357
  C   3.13726643415063      0.06456161736701     -0.20497078926143
  C   3.77848738766427      1.29206938386424     -0.03460430697148
  Br  2.83787366591574      2.90579840784068      0.11878132138512
  C   5.17661848299888      1.27121862697023      0.02366315223647
  C   5.89528803933332      2.50094613786313      0.15379708285667
  C   6.47509898693399      3.54401370774918      0.25375238860542
  C   5.86255058032804      0.05058556052354     -0.04974976246064
  C   7.33095593020744      0.03343336486180      0.03348487325190
  O   8.01175770435342     -0.96794677566563      0.00074150604227
  C   5.09207450004140     -1.13157891131132     -0.19245595380636
  N   5.70531772532241     -2.34248661129427     -0.24189341996764
  C   5.12432837020527     -3.61944433371800     -0.37269501200155
  N   3.91244229429681     -3.93960423530318     -0.51811673234242
  C   6.14756715039268     -4.64503290377214     -0.31425330903405
  C   7.02137977372576     -5.45971997584269     -0.25515346348539
  N   3.76319558552293     -1.08445562270538     -0.27897597718044
  H   6.98325375489977      4.47574805520228      0.34037501248996
  H   7.80336617137505      1.02072723921147      0.13573741306082
  H   6.71760715720904     -2.30859738554621     -0.16407111139451
  H   3.31150402189038     -3.11941490138761     -0.53619857189582
  H   7.78791724760002     -6.19569531161722     -0.19960854170334
