20
Coordinates from ORCA-job 21124optt
  Br  1.16318872689624     -0.23734419474626     -0.45888134032288
  C   3.02316642719313     -0.01737042793371     -0.23935037790482
  C   3.59893243661174      1.25658317415075     -0.20213785268636
  Br  2.60672791502106      2.82872241969780     -0.39821581794241
  C   4.97953614308283      1.31728902520783     -0.00969038397130
  C   5.71284324831621      0.14306934691477      0.11181247210284
  C   5.03979950276180     -1.06505558984627      0.04304652296433
  C   5.76269488819554     -2.37715054279520      0.11464689599474
  C   6.45761925967217     -2.70967595143531     -1.18444948605515
  O   6.56145958302965     -1.99160400243853     -2.13352830271486
  C   7.09275137150736     -4.11259385663658     -1.23663998558382
  O   6.99818010018246     -4.89529170948718     -0.34117331961012
  C   7.83867492868103     -4.41465806299194     -2.47253047105264
  N   8.43553377866286     -4.66402530059153     -3.41750651019181
  N   3.72177849106017     -1.12444790056782     -0.12565695056840
  C   5.66455038351453      2.57646215307152      0.07051861902448
  N   6.24495179659029      3.56158823919864      0.14943563617862
  H   6.78438875175078      0.18597030737449      0.25057833881311
  H   5.06435431493023     -3.18093843381900      0.35190685507249
  H   6.52386795233974     -2.38452869232644      0.90081545845395
