23
Coordinates from ORCA-job 21123optt
  Br  0.97807714814140     -0.25256588545034     -0.85556007059964
  C   2.79497808946767     -0.02087113845062     -0.46247806612619
  C   3.40631248083045      1.18427155873403     -0.37245285058196
  Br  2.48268745453460      2.79584331477555     -0.62976110616642
  C   4.81981004409745      1.19119991916260     -0.06378226872003
  C   5.48380663061115      2.45428550077131      0.04666977119439
  C   6.04704307228494      3.50641422579934      0.14836455248132
  C   5.51042343395125      0.02965897902381      0.12511205034245
  C   6.98144221303853      0.04897336023385      0.43956422065194
  O   7.14990218497906     -0.51324110789391      1.75854364748679
  C   8.23907735222824     -0.10568770199983      2.42535986112008
  O   9.04462788600180      0.67538467398005      2.02359143291474
  C   7.78233934965782     -0.69969488805554     -0.53400592809907
  C   8.43860059887267     -1.29812722369154     -1.33484326599511
  C   4.84055844182221     -1.26858626339916      0.03657083498010
  N   5.30220672485910     -2.44193631505353      0.19571715922499
  N   3.47957124653848     -1.17005029400617     -0.27043585409328
  H   6.54192060410172      4.44406363737084      0.24311527752067
  H   7.34067706378520      1.07638786222626      0.45984072661474
  H   8.26912154497882     -0.60037721668871      3.40284059757335
  H   9.02224733524958     -1.83173167428793     -2.04698590006847
  H   6.29138640105202     -2.44085952691701      0.41631111592280
  H   2.99918269891574     -2.05675379618335     -0.34029593757818
