23
Coordinates from ORCA-job 21138optt
  Br  1.02566220290908     -0.10930625856190      0.14681821848585
  C   2.90422206049810      0.00969011910886      0.05568130887464
  C   3.56748433734694      1.23195108959572      0.08701397508235
  Br  2.64224567588638      2.85704848800081      0.25006057216980
  C   4.97385273279332      1.26815190625886      0.02372799803151
  C   5.67715205846169      0.07699048234227     -0.07725664529345
  C   5.00511597236118     -1.13847756196093     -0.10149466135134
  C   5.76940721143666     -2.40721673158939     -0.19154891219098
  O   6.96846269955026     -2.46294393380074     -0.22077438618317
  C   3.62294340936348     -1.17541145210078     -0.04086944366541
  N   5.62786202580417      2.50487953090030      0.00776655684656
  C   6.64192928690819      2.64977160061625      0.75492718593194
  N   7.42639490125797      3.77005679344862      0.75460141778157
  C   7.28359278835576      4.88342189552493     -0.08185770218508
  N   6.39051677637272      5.13599542260142     -0.92894349581995
  C   8.38041242015069      5.82710457817232      0.12261814152611
  N   9.26789289127737      6.51887422522908      0.33412696087743
  H   6.75619328555485      0.08133688477763     -0.16931511953865
  H   5.15341020986744     -3.32515546901037     -0.22248380406546
  H   3.09539939630711     -2.12049903766270     -0.07058437179134
  H   6.97573470028664      1.89217108294796      1.46803781891764
  H   8.19759500484359      3.78642442779916      1.40293335593939
  H   5.69351795240634      4.39114191736259     -0.96118496837994
