21
Coordinates from ORCA-job 21134optt
  Br  1.06516165705679     -0.44356854961893      0.07134707337024
  C   2.88645804533498     -0.09475025754584      0.04408718873526
  C   3.47092905700933      1.11468606989161      0.05477913809419
  Br  2.49996644267509      2.71296288998212      0.11781953600973
  C   4.90660732327874      1.17186826497246      0.02598311956743
  C   5.64989734511314      0.05291031471124     -0.00027295412367
  C   7.15335399516314      0.04655531714718     -0.00675267331239
  C   7.69295758141075     -0.39840746946226      1.28178128297227
  N   8.10541584102421     -0.72235632646544      2.29940573866085
  C   4.98266409450013     -1.23382335800371     -0.00316050862855
  O   3.61680165545097     -1.22575897863772      0.00826272625654
  N   5.62028642699763     -2.33183115123454     -0.01996320341762
  C   4.86437854243907     -3.57191900254868     -0.00331746253721
  C   4.01655750643206     -3.71437887984044      1.19983511339159
  N   3.39036133175936     -3.81714727340792      2.15168951451546
  C   4.04467224437295     -3.74776489832159     -1.22130607202596
  N   3.44738743493211     -3.87127429065985     -2.18921396354876
  H   5.37808091018730      2.14674287349480      0.03499944970866
  H   7.53145112555346      1.04709598583527     -0.21532933900932
  H   7.51898198695862     -0.63421115873538     -0.77756771291030
  H   5.58362945235012     -4.39263012155237      0.01789400823156
