26
Coordinates from ORCA-job 21145optt
  Br  1.30432384866360     -0.32240041910795      0.14200048155068
  C   3.13700267161832      0.02829767748864      0.07731846747201
  C   3.69443747207782      1.25389802653509      0.07807401689247
  Br  2.62833405375710      2.80164015171575      0.17551297649732
  C   5.13683857617390      1.35722941347012      0.00810335488266
  C   5.80308613216171      2.70045148467745      0.00950975624439
  C   5.94326209450777      3.23626561284293      1.43983411469726
  C   6.50024971230314      4.64489305846404      1.49102801932913
  O   7.86140154485433      4.68040399442900      1.03138280635562
  C   8.07631460198100      5.02986115645109     -0.23610112850332
  O   7.23872828994114      5.29772130077159     -1.04537362504905
  C   5.86564606626347      0.21020801258598     -0.01502826553255
  C   7.28977050890358      0.21620673580257     -0.03531959674889
  C   8.48907015521742      0.17489602383432     -0.03968297617471
  C   5.22952044383353     -1.11372010152032     -0.00902091935666
  N   5.74822378834543     -2.25513037103732     -0.03729712832638
  O   3.84215782933408     -1.09693446798741      0.02490758414230
  H   5.22997837490315      3.40392854173213     -0.59461596058915
  H   6.78794446038385      2.60492153176405     -0.44530860579508
  H   6.58758328736903      2.56727321044450      2.01533124823889
  H   4.96571982215068      3.24982500333083      1.92779695291971
  H   6.53895022526010      5.00338603608589      2.51759911290171
  H   5.90161485971696      5.32644145193810      0.88685441542647
  H   9.15506517122994      5.03750525997872     -0.43298013630145
  H   9.55296339300063      0.14466647965519     -0.04229867487259
  H   6.76181261604824     -2.18373480434501     -0.06522629030080
