26
Coordinates from ORCA-job 21143optt
  Br  1.26723199369848     -0.06250085810580     -0.26103237235395
  C   3.11910196007864      0.15388708076307     -0.18583177782834
  C   3.76852794455330      1.32424236920736     -0.06956067272496
  Br  2.82691778452636      2.94567623239130      0.09004377024400
  C   5.22098938218614      1.31434576124411     -0.05775054709399
  C   5.98067998927102      2.60732014428076     -0.03551958229851
  C   6.02289347555216      3.22789383779170     -1.42995505361093
  C   6.61315126436722      4.61263948751171     -1.41736813500085
  O   6.93660463635927      5.19240376075551     -0.41918186516863
  C   5.86050252145209      0.12302024293449     -0.11366012050297
  N   7.27722766758212      0.05707349802839     -0.07810484089354
  C   7.80837865036537     -0.11434873649776      1.27627099809263
  C   9.25947738800378     -0.30277914277678      1.23149841776861
  N   10.38997654539507     -0.47542484048312      1.18239394657354
  C   5.11997176268905     -1.14046258958281     -0.17656999893845
  N   5.54549433720631     -2.32602965644261     -0.18218476498870
  O   3.74664801783222     -1.01976482222755     -0.26348126861953
  H   7.00069096721889      2.43699578713051      0.29810483858060
  H   5.51863980635973      3.31061484205460      0.65583486262794
  H   5.02336001991566      3.30447638450344     -1.87206481167588
  H   6.61007004241566      2.60782138976942     -2.11478336461082
  H   6.73187823147982      5.08773507078869     -2.40975804044437
  H   7.63610333567621     -0.65872973408237     -0.69918906522571
  H   7.36789827681654     -0.96456167522484      1.81115703864421
  H   7.59154733296876      0.78549707708991      1.85504521349734
  H   6.55703666603005     -2.36804091082136     -0.12035280404876
