27
Coordinates from ORCA-job 21146optt
  Br  0.94791225839758     -0.10368116716142      0.34361615765946
  C   2.81419381695268      0.08814747266968      0.16367673677012
  C   3.44510796575165      1.32292762501249      0.24679640095278
  Br  2.49651558152775      2.92861271957081      0.52161156795604
  C   4.82527986465039      1.38481557320698      0.12910372826275
  C   5.59138128648060      0.24662085457705     -0.08732437617352
  C   7.08260880633686      0.39612036718645     -0.18999569569265
  C   7.63404718304479      0.15498270408991     -1.57243517441828
  O   6.99625910159588     -0.18891695983523     -2.53061818837948
  C   9.14071775335095      0.37642126519423     -1.75463732988101
  O   9.84153131682074      0.77375002833984     -0.87244747937399
  C   4.95686678697824     -0.99547589183433     -0.19814222263208
  C   5.70073112224347     -2.27713768308244     -0.47575207238184
  C   5.39087306222631     -2.83227918202295     -1.86349841713460
  C   6.26314722443809     -3.99701773172948     -2.23504084562379
  O   7.15151692923786     -4.42133090466414     -1.54823193862720
  C   3.57567924382768     -1.04999217457212     -0.05541008819562
  H   5.30791346613369      2.34994309043361      0.21402799980651
  H   7.61589356181323     -0.27968855654242      0.48671542220279
  H   7.40076612750154      1.39625699677759      0.11398293127805
  H   9.50723213064464      0.14463707286240     -2.76991757506145
  H   5.43469920481575     -3.02628785651546      0.27339315710315
  H   6.77783587690745     -2.14463063035397     -0.38915531403226
  H   5.52859357470695     -2.06217663515712     -2.62923096070115
  H   4.34727157752911     -3.15209533747862     -1.94989084419916
  H   6.04909435252831     -4.45816366338192     -3.21811517014656
  H   3.07033082355763     -2.00636139558939     -0.11408040933700
