23
Coordinates from ORCA-job 21140optt
  Br  1.24929825208974      0.19561888346876      0.93209727985367
  C   3.05433563573568      0.09154431640184      0.37024530382350
  C   3.71080528521639     -1.15697675031189      0.24787448241264
  Br  2.75467363418680     -2.74497426088535      0.63004966070137
  C   5.04580836039312     -1.20846741210361     -0.13352967365009
  C   5.75777875834390     -2.55179567257740     -0.20337360841479
  C   5.43401144151951     -3.32824407675956     -1.49129822413216
  C   5.95769872384902     -2.72786141692831     -2.76441968168702
  O   6.58674698175525     -1.71060199141570     -2.83138130564398
  C   7.19512237438867     -2.49641840406067      0.06344985094417
  C   8.35832023057113     -2.52420298455637      0.34302300435563
  C   5.66496867532357      0.02403705687853     -0.41696678357946
  C   6.98653405510046      0.38915573713101     -0.86444387747156
  N   7.19694702935358      1.65704360452081     -1.02231728294510
  S   5.85599605333273      2.56299650763885     -0.66116651858639
  C   4.90016726842730      1.18918912013674     -0.26293727430620
  N   3.62849922224486      1.23460724059035      0.12743499695660
  H   5.33934158512571     -3.15044297361688      0.60902254456355
  H   4.35147805675301     -3.44095157285969     -1.60014387614411
  H   5.83436715117405     -4.34389973233370     -1.41569890786077
  H   5.71382909024273     -3.30255144524294     -3.67826562925665
  H   9.39557412465180     -2.53167885356360      0.58084651238618
  H   7.77669801022091     -0.30912491955119     -1.08610099231903
