25
Coordinates from ORCA-job 21144optt
  Br  6.23357192198849      2.30991330225153      1.51277824890598
  C   5.25268828753903      1.03050961999011      0.52066982973387
  C   4.09702089318203      1.39403663571149     -0.17880721078459
  Br  3.43703794809975      3.14813932864328     -0.18703226090293
  C   3.43297400953019      0.38934828371466     -0.88755511189376
  C   3.94702159273667     -0.90822504846675     -0.85763440827826
  C   5.09466346691009     -1.15202987666890     -0.12959158554278
  C   5.73244780605703     -2.50719409022266     -0.02343659798238
  O   4.97875064400211     -3.43422788291835     -0.79090609209096
  C   5.41862973062857     -4.69644473817602     -0.78333773258211
  N   6.43609538158561     -5.07585809541459     -0.15376303507168
  C   6.78633457472397     -6.47446342523908     -0.24022069650591
  C   8.21881002555572     -6.64102862519661     -0.70302080101553
  O   8.61579881089597     -7.62555055222357     -1.25639651343080
  N   5.72806463275993     -0.19042775788652      0.54181780364893
  C   2.24880686396488      0.65405307245738     -1.64068815145063
  C   1.25627180044592      0.84313641339991     -2.28374954047333
  H   3.45018321193550     -1.70132369206298     -1.39507187291590
  H   5.76860223903578     -2.82643197848379      1.02021007891656
  H   6.76187215001542     -2.46784925618281     -0.38515996332737
  H   4.77376781812308     -5.33270653202772     -1.39272992688236
  H   6.13933874998404     -7.06731147919724     -0.89636834740140
  H   6.73785563562416     -6.91521777154295      0.76195817550052
  H   8.88622880409365     -5.78791171660540     -0.47877123250461
  H   0.37616300058223      1.02306586234770     -2.85419305566855
