21
Coordinates from ORCA-job 21149optt
  Br  1.24379837079603     -0.71490897081830     -0.81062903463073
  C   3.05032235343566     -0.37801659532766     -0.36350611198765
  C   3.56838120229997      0.92576200119032     -0.34515449105972
  Br  2.49534027709428      2.40362113451638     -0.78441785895474
  C   4.91570265301828      1.10205520641881     -0.01925599646325
  C   5.66805135076535     -0.02991218746437      0.27299720600896
  C   5.05406916980120     -1.26662463907260      0.23429117444381
  C   5.80422086549916     -2.51446122501702      0.56596336037265
  O   6.94060124066908     -2.51028594131755      0.94576693275078
  N   3.77108912161805     -1.43376982490228     -0.08132628115181
  C   5.54778752307062      2.42866095997498      0.03905807147740
  C   6.67190169074415      2.86319803122943     -0.59411828579105
  O   6.93527534849904      4.12651431825305     -0.24068221968679
  N   5.99565342662048      4.55644206894814      0.64595784424965
  C   5.17144808583868      3.56459321883941      0.81210827269227
  C   7.58726373575473      2.26192053697919     -1.58404577327423
  O   7.46382390509060      1.13799319118904     -1.98404511843457
  H   6.71606622689090      0.04075078162433      0.53036899050208
  H   5.21827929294263     -3.44078736946510      0.44207158680537
  H   4.33379797748550      3.67363263068648      1.48260231317330
  H   8.39212618206555      2.93162267353532     -1.93000458104172
