24
Coordinates from ORCA-job 21150optt
  Br  3.33907107004931     -1.85542126167982      2.49523988608223
  C   3.97745220734303     -0.75831050362222      1.12630249951465
  C   4.65538304364691      0.39896258965566      1.28668653138512
  Br  5.07480925117490      0.94469734956895      3.04122259065128
  C   5.07256296188510      1.13402860296433      0.10366366099981
  C   5.78180001032315      2.48955668802592      0.10635141870155
  C   5.42284877626131      3.50758204227865      1.18934053800652
  C   5.72516862164149      4.90582782801964      0.70299733279646
  O   6.17411315505135      5.16035711987476     -0.38057212414667
  N   7.21395815636951      2.32522631235701     -0.06027441669290
  C   8.00412806042748      1.66035638215974      0.84527486847158
  N   9.26424126149843      1.69048693839762      0.96542025610690
  C   4.81400751258797      0.56692875686985     -1.10461189086956
  Br  5.33480050629048      1.31192152930138     -2.74639191706999
  C   4.09256096955195     -0.69306560306605     -1.26286006498665
  O   3.80865059937559     -1.25185991867662     -2.27156987014335
  O   3.68187621848159     -1.26256446731523     -0.06654339695767
  H   5.45302101901525      2.95900923631860     -0.81892113554352
  H   5.98811681031347      3.36328407705989      2.11116193268675
  H   4.36456623382360      3.47129904386014      1.46849319073469
  H   5.51235364313724      5.71378290841555      1.42617903156173
  H   7.65367007683343      3.02511354916698     -0.64133671710404
  H   7.43741702838455      1.00784838902212      1.51003005564316
  H   9.69842280653273      2.32995241104311      0.29871774017191
