22
Coordinates from ORCA-job 21159optt
  Br  4.23915038458457     -2.70885438025544      0.41215871215427
  C   3.93925310341706     -0.85610877031571      0.16697614117970
  C   4.98802091373370      0.06606512338561      0.24171004896161
  Br  6.75405721107624     -0.48514003087407      0.60866281704410
  C   4.70731069451007      1.41614360047464      0.03327866441523
  C   3.38699233176078      1.76603340334630     -0.22269070377613
  C   2.42316253271745      0.77560980356192     -0.26669997256342
  N   2.69793044921705     -0.51037123600494     -0.07856727220333
  C   5.81524203365038      2.44699570268593      0.03956457258726
  C   5.32908529120914      3.92237552174450      0.14610395292438
  O   4.57774058824176      4.31640200214368      0.98447061177873
  C   5.94793231143985      4.77611957680709     -0.96701937287996
  C   6.67101133151074      3.75050872754855     -1.77072335560639
  C   6.61700600633925      2.49835524361035     -1.22702189087783
  S   7.48008487935112      1.47246259415448     -2.24312008873860
  N   7.84241757053836      2.71962955902544     -3.30838943526027
  N   7.36501062711733      3.84042879402706     -2.93200269886236
  H   3.10545253121951      2.79810128532515     -0.37230436639002
  H   1.38586685142123      1.01855690502754     -0.46209448195855
  H   6.46050626183602      2.26091375549280      0.90408463803820
  H   6.60610955022715      5.52744943809762     -0.52501536156536
  H   5.16165654488117      5.30432338099147     -1.50836115840124
