21
Coordinates from ORCA-job 21158optt
  Br  1.30556743016756     -0.31958262382526      0.21060182705130
  C   3.17551968761832     -0.06062777069232      0.12686660488159
  C   3.72916258798664      1.22467118985020      0.10813846367317
  Br  2.65827881406626      2.75818540107323      0.24565258600407
  C   5.11861455362299      1.31453035879165      0.02842380285912
  C   5.87812380196142      0.15559431669336      0.00879133024821
  C   5.22659716589254     -1.07018625128030      0.03551640514421
  N   3.89674488814203     -1.15646465408216      0.08458842540393
  C   5.95594218817701     -2.32992916941237      0.02412782298152
  C   7.28701591648655     -2.67203845460005      0.04192309837945
  N   7.38104952033765     -4.02303462345689      0.03370301403775
  N   6.19106754316217     -4.52889429792410      0.01252171649238
  N   5.32953057799368     -3.52477971805091      0.00765104972982
  C   5.83669046599239      2.62525022609985     -0.09306907075220
  O   5.54556959019496      3.47349320426384     -0.88705174265747
  C   7.04297442817589      2.88789610374414      0.82311531147855
  O   7.45159841106918      2.10281698507127      1.62406241459821
  H   6.95701261881003      0.20419680341159     -0.03002872941166
  H   8.16231438240133     -2.04615041018129      0.06627821414118
  H   4.33338307517949     -3.68755969368476     -0.00329462716876
  H   7.48624235256184      3.88561307819128      0.65948208288562
