21
Coordinates from ORCA-job 21160optt
  Br  1.12344972623847     -0.03960565460146      0.08048968134134
  C   3.00832583992738      0.12445012932022      0.07741640239293
  C   3.62622032058403      1.37927530920553      0.07180792146534
  Br  2.65097069494038      2.97685042506558      0.06041178370609
  C   5.02667319926801      1.41346288184677      0.07408082157042
  C   5.72603107353087      0.20955106634904      0.07829347397463
  C   5.00660517497568     -0.97378977516725      0.08047089025517
  N   3.67346259643680     -1.00388738667308      0.08120396561956
  C   5.68775218307252     -2.27176802482079      0.08100980454239
  N   6.98192917411169     -2.41540804220669      0.07763573183047
  C   7.32011970945832     -3.72794081220069      0.07676163711193
  C   6.26981207306056     -4.60943323875999      0.07954633238147
  S   4.78782903385845     -3.73623957792374      0.08346611945433
  C   6.31106561494837     -6.02290342121549      0.07873792872589
  C   6.33184957503576     -7.22189307217941      0.07790520021051
  C   5.75004081846424      2.64487768116047      0.07246383937090
  C   6.38588742222330      3.65984550685757      0.07149165206094
  H   6.80614097376752      0.19197009663943      0.07926273112404
  H   8.35871376771099     -4.02328746919761      0.07379039027298
  H   6.35323993022343     -8.28559329690238      0.07691046923143
  H   6.94688109816317      4.56446667540400      0.07084322335723
