19
Coordinates from ORCA-job 21162optt
  Br  1.35811162912055     -0.40801956347656     -0.16496433421138
  C   3.23502805477244     -0.20787327241420     -0.11332658319649
  C   3.83116235118292      1.06077403920126     -0.13001631358863
  Br  2.82472680066789      2.63266012914697     -0.23626920222072
  C   5.22774651149040      1.12779097764924     -0.06995852642363
  C   5.95339875441698     -0.06275128896044     -0.02934242204835
  C   5.25640970995930     -1.25574081370677     -0.03370791368963
  N   3.92457823810811     -1.32069004757551     -0.06232732284920
  C   5.95101557598156     -2.54735683531880     -0.00897907394728
  N   7.24219551560982     -2.70139398006715     -0.10281273653788
  C   7.50704722990064     -4.03361267680284     -0.05847640050705
  N   6.52512063712534     -4.88933891244219      0.06960327993523
  S   5.13040941807699     -4.04287239617117      0.13292399050484
  C   8.86596021856876     -4.49955683251024     -0.16992704226472
  N   9.94612112313848     -4.86606828512690     -0.26849916360312
  C   5.92158244367147      2.37456166237649     -0.04528524901907
  C   6.53259501480029      3.40385331424587     -0.01155726747535
  H   7.03334094973835     -0.05508177149235      0.00506206859342
  H   7.06944982366961      4.32271655344528      0.02186021254900
