22
Coordinates from ORCA-job 21167optt
  Br  1.64674398330187     -0.36086274765474     -1.52928263582453
  C   3.36304703020241     -0.17274831213117     -0.75138343075897
  C   3.99183618285065      1.07573383695497     -0.69004972216083
  Br  3.16958893213477      2.64182065840851     -1.31431745148815
  C   5.25342485527482      1.12870727624926     -0.10661065263187
  C   5.81554458709996     -0.03611045592476      0.38848600733836
  C   5.10384083751370     -1.22476372797207      0.27696329638917
  N   3.89669542472779     -1.27605567121901     -0.29012958847736
  C   5.66121949926301     -2.44884729623921      0.77695116243548
  C   6.15999082606938     -3.44971990514580      1.20527937658443
  C   6.02754609715993      2.39591033823943     -0.00794056087098
  N   6.21835259696793      2.82091880398691      1.18170055065409
  O   6.95311757603482      3.96845159109446      1.35638714001825
  C   7.40664098284532      4.64564766313297      0.28908668226982
  C   7.25561881376760      4.25690664031336     -0.97823758482756
  C   6.57120395633503      3.00873836243225     -1.24359947697612
  N   6.40538183021474      2.39594335598904     -2.34489037753255
  H   6.79149158581532     -0.02077498565769      0.85227630740322
  H   6.58996683093030     -4.34691833903720      1.58268679906286
  H   7.91690557586245      5.54649700144468      0.60152163518486
  H   7.65534489931124      4.85618207632662     -1.78379111115512
  H   6.82549709631691      2.90734383640916     -3.12010636463650
