23
Coordinates from ORCA-job 21178optt
  Br  1.15465066971794     -0.24055212510861     -0.30658726335996
  C   3.00846128027522     -0.05043871212832     -0.14539664590114
  C   3.69549832290426      1.08063424576510     -0.43848828196612
  Br  2.83891218783796      2.61310449741710     -1.07615534444083
  C   5.15075385800712      1.14335255213573     -0.26647774315513
  C   5.75280926740689     -0.10531482307166      0.17634200313636
  C   4.99312511788265     -1.18787006519268      0.44234044773673
  N   3.64534147207651     -1.17075344679735      0.30060194399562
  C   5.56600929239282     -2.47631910581221      0.90793119309207
  O   4.87269951976122     -3.42801255437894      1.13877704941979
  N   5.76161425100589      2.24513689777305     -0.51063915079080
  C   7.19705379589295      2.30700234105549     -0.37559828580405
  C   7.67227716925101      3.69384146399461     -0.83938645178581
  C   7.37337032042297      3.88907928241690     -2.25561435149400
  N   7.16510474312593      4.02830402226047     -3.37286794121534
  C   7.64254577267583      2.09765095011699      1.01785866460901
  N   7.96892492179329      1.91444464711903      2.10102785960440
  H   6.82132162769144     -0.18502440701195      0.31961882225612
  H   3.13178344776199     -2.01431960014012      0.52350678143434
  H   6.66079359861024     -2.49549273125950      1.02459521970263
  H   7.69906110007922      1.54571204024565     -0.98751163915237
  H   8.74536204995563      3.80783631027581     -0.68418852491254
  H   7.15052621347096      4.45399832032540     -0.25768836100900
