22
Coordinates from ORCA-job 21174optt
  Br  1.57584815171541      0.13604661160105      1.37741399722107
  C   3.22297961225201     -0.03486545018979      0.46419099383916
  C   4.02186566530394      1.08580029740881      0.21678588147764
  Br  3.55262844773842      2.81181608347627      0.77115103662390
  C   5.22922688886315      0.90423571109796     -0.46906189225039
  C   5.56234944542290     -0.39447720240049     -0.86075278871315
  C   4.69142583949341     -1.42259613988268     -0.55432296918323
  N   3.54135039111630     -1.25329145591806      0.09642467190949
  C   5.02958493870842     -2.76892791157372     -0.95594927069440
  N   5.35139828765010     -3.81551109053965     -1.29398158091195
  N   6.01438703413943      1.97896137104076     -0.82290218787597
  C   7.12453611608536      2.21098194523164     -0.25524368308562
  O   7.80786929758951      3.28055637426904     -0.75849973403397
  C   8.99921477227714      3.65794932186711     -0.26806468377892
  C   9.60904210355169      3.02797741693040      0.74257358542508
  C   8.93538500875100      1.90525843261241      1.32848428327181
  C   7.74010255792677      1.50931423946025      0.85357143198997
  H   6.47613682838987     -0.58001573716494     -1.40766982520011
  H   9.38510517216639      4.52100766705020     -0.79028050749194
  H   10.56689367346877      3.37309360709508      1.09744175237787
  H   9.39161925253920      1.38067009126799      2.15807399792071
  H   7.20005051485075      0.67401581726035      1.27561749116295
