25
Coordinates from ORCA-job 21189optt
  Br  1.78148250576530     -0.39908025065632      2.29678631183828
  C   3.42741256160279     -0.17406714479812      1.43398725019234
  C   4.11031785419722      0.99057317575694      1.37568994456631
  Br  3.50089993263828      2.57495060779061      2.17676797042870
  C   5.34846548385450      1.00087335286712      0.65465712288649
  C   5.83062530601020     -0.11438440912168      0.07403519304445
  C   5.13124678947203     -1.37674772102435      0.16659898487815
  N   3.91789525875678     -1.30560808975073      0.84697891380284
  N   5.63238163062354     -2.45297621845513     -0.33245766867338
  C   4.93043634806496     -3.70518595616246     -0.11257286279695
  C   3.69735684639029     -3.67914501980746     -1.00480519626142
  O   2.59864303838996     -3.39982974591883     -0.59803078401161
  C   5.80340212191477     -4.86430265448569     -0.46559254231384
  C   7.02278311147404     -4.82750996591184     -1.09841559183842
  N   7.41142972365131     -6.11099125975238     -1.23926486185311
  N   6.53287328070382     -6.98661015893671     -0.74803167017193
  C   5.54931832703905     -6.24039456367593     -0.27611648456048
  H   5.89346865473371      1.93336830669707      0.58901568646190
  H   6.76319602960140     -0.12011334445400     -0.47087787789804
  H   3.29395017163408     -2.10610973749463      0.80067284548605
  H   4.57578515591859     -3.80401311330095      0.92390027536321
  H   3.88515432291881     -3.87529935972870     -2.07493175146005
  H   7.61405718816056     -3.99259887865334     -1.43129944155979
  H   8.26102708280303     -6.45275894809860     -1.65387440540747
  H   4.69639127368089     -6.71003890292385      0.18918063985777
