23
Coordinates from ORCA-job 21184optt
  Br  1.46334181847378      0.86495340798524      1.60952816538620
  C   3.09071736229914      0.36088718190542      0.81845312655094
  C   3.52768458481842     -0.91840797906850      0.70055149827113
  Br  2.54565368918085     -2.29933162051194      1.51322450512233
  C   4.82717005583660     -1.19365245772364      0.06341621719733
  C   5.60840112970999     -0.00074428281087     -0.21373153925991
  C   5.09928574387657      1.23260059017312     -0.08316820198847
  N   3.83029645843962      1.41985038670988      0.38890137502287
  N   5.36285438645320     -2.32562748182649     -0.22215755166848
  C   4.70824547255159     -3.52810709959161     -0.34754806502433
  N   3.66310730943162     -3.62985782294342     -1.15987241776739
  C   3.11949126501348     -4.84041162585317     -1.29338556986606
  C   1.94606609662018     -4.92092032022302     -2.20761013767452
  O   1.32360457343494     -5.92589190992940     -2.41592514304734
  C   3.60341845572508     -5.95371111620696     -0.62801949364957
  N   4.67410045055054     -5.86329740494275      0.16562019667959
  C   5.22699100460478     -4.67493318202419      0.29021989016657
  H   6.60771254548184     -0.14731072598168     -0.59496472445141
  H   5.64078067754097      2.12985352180128     -0.34404258397365
  H   3.44081073782558      2.34432837078401      0.46908145813705
  H   1.68940569548444     -3.95832766358568     -2.68486809504209
  H   3.13236708817282     -6.92035442305898     -0.74972310994979
  H   6.10649339847397     -4.58358634307663      0.91702020082898
