24
Coordinates from ORCA-job 21188optt
  Br  1.04264017887337     -0.17193019392370     -1.08019919507059
  C   2.86401161091819      0.00706437863157     -0.58487254641214
  C   3.52485080396719      1.22843994756122     -0.72314391901648
  Br  2.67571052892159      2.71849912839540     -1.49095415216720
  C   4.87250487037629      1.29358954142167     -0.33230694857513
  C   5.46862304947652      0.11935731184021      0.12942552657298
  C   4.71255482794430     -1.03355602268362      0.20326851462522
  N   3.42967631315549     -1.09067827927142     -0.13504264841984
  N   5.61127229013783      2.47606593988019     -0.45531217494631
  C   7.06730337001566      2.39793974698115     -0.57420337863468
  C   7.76452838288397      2.26836363818025      0.71014152596031
  C   8.31590815001630      2.16677446527770      1.76756692154258
  C   5.11827173333759      3.62930853605762      0.13756446588687
  C   4.49645012432119      3.90336773166123      1.30340390865391
  N   4.17876998383063      5.25103762759367      1.33045899013878
  C   4.63439733090387      5.70922785939377      0.22136485813797
  O   5.21939499495578      4.78789895362237     -0.56836302594243
  H   6.49845679275477      0.11434976791787      0.45607495704076
  H   5.15075172159728     -1.95524918953386      0.56744304597611
  H   7.40144231278730      3.30577439178689     -1.07765756393944
  H   7.31061017112518      1.55723803115487     -1.22434464744785
  H   8.80578783904290      2.08290607558769      2.70866509354897
  H   4.24411373754088      3.22746203880353      2.10239287646611
  H   4.61996888111587      6.72374857366372     -0.14037048397846
