23
Coordinates from ORCA-job 21183optt
  Br  2.39359856732583     -1.96924265879512      1.66655577525710
  C   3.63026263530298     -0.99088442291678      0.60943873533470
  C   4.14531375395646      0.22998319767297      1.05651033960541
  Br  3.71596830095852      0.92982631081246      2.75254375616008
  C   5.03213964170562      0.92534847658009      0.21906248678820
  C   5.36609220229427      0.31780409501892     -0.99600044722159
  C   4.80462919990420     -0.89541992817808     -1.32605791731701
  N   3.94253987276365     -1.53919647971879     -0.53938992316982
  N   5.64700052410677      2.11661823796332      0.55991415819512
  C   4.97417495652763      3.19625523219628      0.73170716648033
  N   5.67604123330026      4.32083828473097      1.12826265219259
  C   5.13072210587833      5.54452601611132      1.33728584036473
  C   3.80889087572121      5.75880685369616      1.16111403166093
  C   3.01684679044598      4.64344837925138      0.74369421800077
  C   3.55842231294432      3.41675316020039      0.53487620038462
  C   1.60614881237214      4.83897232984969      0.54125143335506
  N   0.48495861943114      5.01741682990356      0.38255202713960
  H   6.06447663504645      0.81474949831779     -1.65442036490036
  H   5.04647153353207     -1.38293310423977     -2.26285829141027
  H   6.66573632789728      4.17277338393640      1.26870618251550
  H   5.81639024874541      6.31887883378926      1.64886367809148
  H   3.36814499245298      6.72811531347321      1.32631171969877
  H   2.95002985738646      2.58156216034433      0.21907654279406
