28
Coordinates from ORCA-job 21195optt
  Br  1.01132829118330     -0.09135843278868      0.31769198957385
  C   2.88393862320391      0.06319074825962      0.14330263031215
  C   3.52572363960033      1.29639197640793      0.20036661405572
  Br  2.60084958771936      2.91347935143219      0.42742653363878
  C   4.92028281978537      1.28993220490093      0.07988561437828
  C   5.72786796862023      2.55193113168180      0.14174372278334
  C   7.22781088822385      2.28943530959336      0.18486312348252
  N   7.98458437172362      3.53254007519025      0.21136163734421
  C   8.61204666365676      3.98647208319497     -0.94493976378649
  N   9.11470108308002      5.12927781791879     -1.13819634591512
  C   8.97861968133788      6.07156266240363     -0.03782508503232
  C   9.07344390269382      5.38542715342017      1.31882525740940
  C   8.10112702572791      4.23694390385638      1.40141384464910
  N   7.45310373438563      3.84913346414653      2.42334230718432
  N   5.57415699752943      0.14336643324271     -0.09849367488206
  C   4.85994271207159     -0.96992210688818     -0.14802073612794
  N   3.54383990118313     -1.06256179582713     -0.03066156041468
  H   5.43929125725461      3.12327946795451      1.02580941282013
  H   5.47383264177336      3.17322164285131     -0.72390264949385
  H   7.54249972369238      1.71669284330689     -0.68578190683352
  H   7.47405621430269      1.71013592294373      1.07340527881679
  H   8.63863159140021      3.24661496586011     -1.74141620946295
  H   8.00919423445733      6.57393212192415     -0.13696758201869
  H   9.74703521961708      6.83665766421610     -0.13584781541017
  H   8.88632329778648      6.07916156118559      2.13743600344856
  H   10.08079323340882      4.97639670606378      1.44340524149398
  H   7.66017204824139      4.44302296514784      3.22087896504379
  H   5.39880264633944     -1.89835784159930     -0.29610484705713
