24
Coordinates from ORCA-job 21194optt
  Br  1.31916262695198     -1.32173394460984      0.49570151344317
  C   3.03308566893655     -0.63389730417664      0.19973752925389
  C   3.31990817477078      0.68668279873417      0.09381189160618
  Br  2.02171019848784      2.03826446121970      0.18182650257984
  C   4.68775890240714      1.04575644993348     -0.09918999108027
  C   5.67443205869908      0.12855149886651     -0.20771335445115
  C   7.09329303510121      0.54016955775919     -0.45042006612707
  N   7.99034029455453      0.10779252338206      0.61784598992417
  C   7.72067963766939      0.07518731764727      1.95302442866976
  N   8.74456474548604     -0.32648674242302      2.65367870733515
  C   9.72910836527781     -0.56830332866101      1.73222646015779
  C   9.27980634482919     -0.30522511597436      0.46390657818526
  C   11.03057838332644     -1.02975569334269      2.08983353523358
  N   12.08574194139486     -1.39991305477912      2.34466342176089
  C   5.36758508994316     -1.30036408911037     -0.13614437747439
  N   6.13480770883657     -2.30974659168497     -0.25139877609000
  N   4.01446588479039     -1.56225459459173      0.09735434277326
  H   4.92675201431674      2.10123358027381     -0.16090468807790
  H   7.14981114141602      1.62388102601219     -0.55840663367574
  H   7.46383497230650      0.09017403758225     -1.37478270749328
  H   6.75426701174135      0.34895726361450      2.34556150149995
  H   9.75874885578668     -0.37645218349802     -0.49751590327288
  H   7.10636716010855     -2.04994188432411     -0.37945421355608
  H   3.78118978286101     -2.54357598784922      0.17175830887584
