21
Coordinates from ORCA-job 21200optt
  Br  1.25650047502294     -0.95321973649614     -0.32115118161732
  C   3.05156033734619     -0.37419276225835     -0.17146132580657
  C   3.39727020094569      0.99645989190649     -0.38612506409885
  Br  2.04609609755381      2.21849069130481     -0.87140625701415
  C   4.70876717019862      1.42214702784872     -0.24966616769906
  C   5.14248236367423      2.84734515989145     -0.50819176645749
  C   5.76776588173027      3.45037241516673      0.66715616845829
  N   6.28306779728847      3.88993209302169      1.59077462290704
  C   5.62160809046287      0.41465367453518      0.11524297818324
  N   6.95949840755739      0.31629445474496      0.37019289738181
  C   8.03825771246345      1.27775115757586      0.48291491752121
  C   8.26209709248771      2.01111650072966     -0.76592193341442
  N   8.40114249095139      2.60336107608316     -1.73526022694572
  N   7.27223308986298     -0.97099703708815      0.65246179652490
  N   6.23635305900235     -1.70114255806716      0.59725103910374
  C   5.17422847619540     -0.89929205453347      0.27173763284577
  N   3.91129817111500     -1.29539247406216      0.13518080944988
  H   4.29332845143914      3.46133835094240     -0.79709783732285
  H   5.86500616672512      2.87614200757313     -1.32731560468014
  H   8.92511328743336      0.69448596997371      0.72842717277383
  H   7.84732518054356      1.99234615120748      1.28325732990688
