28
Coordinates from ORCA-job 21206optt
  Br  0.96107012520803     -0.00053304227299      0.44526430333498
  C   2.82029805353015      0.03072758779642      0.26478002447354
  C   3.55356462045085      1.16847668080506      0.22877715077346
  Br  2.70727236681782      2.85124817068110      0.33499742756409
  C   4.99231188011173      1.15598779663183      0.09986468077008
  C   5.79586139210394      2.43388869878325      0.06464727686178
  C   5.82356493475456      3.03711337510994     -1.27274095248886
  N   5.86350590820397      3.48159256329606     -2.32783257049209
  C   5.59688181340027     -0.05090982699541     -0.03376275308930
  C   7.07839137518694     -0.25986529549648     -0.19370753299579
  C   7.83831465493378     -0.26957637253161      1.13873498115271
  C   7.33489792983738     -1.34781571918900      2.10393306586012
  C   8.12641181751062     -1.38703422975085      3.32955144678776
  C   8.79523738777456     -1.39440361553265      4.32282401960645
  N   4.84670931257757     -1.19067566670665     -0.00460081068379
  C   3.46353005947567     -1.28091689327172      0.15641989111218
  N   2.81059050998747     -2.37238121576969      0.19698106075153
  H   6.82651518316308      2.25083072481583      0.36312136903229
  H   5.39079649901185      3.16631068349310      0.76196117823528
  H   7.48722877085739      0.50929140039536     -0.84900366807672
  H   7.24138200853391     -1.21196743642118     -0.70610209138840
  H   7.75499722566824      0.70138497259475      1.63063415449391
  H   8.89791412936826     -0.43373683681261      0.93797084428966
  H   7.37919042276834     -2.32946637010909      1.62115766128112
  H   6.28793966296315     -1.16481892240237      2.35911529796457
  H   9.38457798381701     -1.40644670775251      5.20861016022669
  H   5.33071738686249     -2.06888243265698     -0.11787195071589
  H   3.41032658512087     -3.18842207073093      0.10027633535866
