22
Coordinates from ORCA-job 21204optt
  Br  0.84935220039217      0.06607375808668      0.22756009775102
  C   2.71613618117248      0.08132420220691      0.09550418868475
  C   3.48678983880518      1.19826990161431      0.14151208357000
  Br  2.69994405202570      2.89439913205695      0.34848674774422
  C   4.91170651714582      1.05436170464368      0.03615548755207
  C   5.75961608929662      2.30856099654059      0.04918476997248
  C   5.89925764862159      2.85078435582505      1.40144155353954
  N   5.99684416840699      3.28538298648309      2.45637099725469
  C   5.47897227943948     -0.18476903453171     -0.08818681387193
  C   6.92859287665157     -0.38997499046073     -0.11664101218137
  N   7.83210081938858      0.25654561275776      0.54765318631648
  C   9.02720149050723     -0.32474873173623      0.17515846666070
  C   8.76973776527810     -1.30742727940416     -0.71336023240710
  O   7.43171977855387     -1.35492203129336     -0.90701552823180
  C   4.65457124962456     -1.39351219878320     -0.13512815454332
  O   5.04308781757490     -2.53501512916107     -0.22036197212761
  N   3.28502857877468     -1.13730711361339     -0.05055717474463
  H   5.28898470075279      3.07201644253806     -0.57118748207836
  H   6.75484741210703      2.10147825817812     -0.33288979452246
  H   9.97096023144601      0.00215646580547      0.57528575927366
  H   9.36764146935114     -2.01520894812773     -1.25790347836699
  H   2.69990683468341     -1.96246835962511     -0.06808169524404
