25
Coordinates from ORCA-job 21212optt
  Br  0.98596044881514     -0.21248393836307      0.05294455229400
  C   2.86446692466264     -0.00406383986485      0.03538642271543
  C   3.46144756511862      1.24913105393869      0.03968807209469
  Br  2.42171611454786      2.82063655760936      0.17330803169839
  C   4.86200313559667      1.32227000971297      0.00582769892370
  C   5.61552586752913      0.16197107212219      0.01065011452600
  C   5.01331622186411     -1.09996486208653      0.03592962562586
  N   5.78831823835229     -2.23339338884698      0.04002464784632
  C   5.25044538216255     -3.52819248830168      0.30652217709325
  C   6.35279335675167     -4.50449256383429      0.61836307675177
  O   7.50616399416245     -4.19054436212132      0.70014492879548
  C   3.62087352860322     -1.16798357284639      0.02576026835066
  C   5.59372072187324      2.60516186187122     -0.03797063976628
  N   6.62025531706259      2.78320682771894      0.74894302080331
  O   7.12956054794035      4.01351381278237      0.44403702532647
  C   6.40519542826237      4.55720603346800     -0.53695007098580
  C   5.40734389696234      3.72616189628930     -0.89920284275955
  H   6.69467154958171      0.24604535387797     -0.00637037024112
  H   6.77454299575878     -2.13752311901034      0.23499697690240
  H   4.67832528390724     -3.93054903133887     -0.54050683592602
  H   4.56606882245120     -3.53682450063644      1.16974147342502
  H   6.02716465449238     -5.54656983805924      0.78158997890035
  H   3.10869339871654     -2.11875788492771      0.00998473674434
  H   6.71917009981812      5.53100183974994     -0.87350998197733
  H   4.65625650500670      3.86803707109677     -1.65433208716131
