31
Coordinates from ORCA-job 21225optt
  C   1.48361782649979      1.49887929886948     -0.53173236092821
  C   2.84044781347168      0.82786454080749     -0.37728081110558
  C   3.82581015387648      1.34341618994697     -1.42771922222203
  N   3.33880601972414      1.09665254114971      0.95985848686721
  C   4.26769161924192      0.37077109048329      1.45767993755456
  N   4.87439601062897     -0.70074495644015      0.87010165507345
  C   4.78251564174141      0.79512325025325      2.79097000206959
  C   4.63562980346280      2.10669693982166      3.14209152038214
  C   4.11707624359175      3.12089620373875      2.15479385546681
  O   3.30608404187459      3.95579145810075      2.46114441640850
  C   4.99794907375376      2.61311212788520      4.43827361869371
  N   4.92457027291852      3.97217693529539      4.76535279288362
  C   5.51300731023985      1.69260423354790      5.27303256665657
  F   5.91776612276830      1.98711524860971      6.50675513420255
  N   5.69912364530764      0.38703840958460      4.94272974462779
  C   5.37715152002695     -0.16812922794898      3.71500545499578
  N   5.58155725368360     -1.40534769013949      3.42567465587706
  H   1.07391799714986      1.32437866059674     -1.52786844012912
  H   1.58883853457487      2.57423031862588     -0.37791555338279
  H   0.78135504915208      1.11976330985515      0.20991981533009
  H   2.70059745184347     -0.25437541209749     -0.52231412663551
  H   3.91808539138198      2.42725992882617     -1.33388770329646
  H   3.47116741887587      1.11763092577468     -2.43446999473448
  H   4.81593075192529      0.90394189423936     -1.29970037167981
  H   4.42622324801470     -1.09244171034251      0.05874254808158
  H   5.31753873350501     -1.35107662963270      1.51391894790963
  H   4.63312100072003      3.13718475346118      1.18517693733763
  H   4.09599514577123      4.41554137364705      4.39097831444991
  H   5.03031918692986      4.14754451817398      5.75345439158893
  H   6.10272024556077     -0.20907793664679      5.65060476734924
  H   5.99998947178277     -1.92542058804630      4.19062902030761
