31
Coordinates from ORCA-job 21221optt
  C   2.70265741848394     -1.44721761739395      1.64066761564524
  C   2.24553166884911     -0.24211378880983      0.83797904677308
  O   0.83197701100208     -0.10242020491992      0.87769894293364
  C   2.90300009049942      1.05941776692440      1.28831765508782
  C   4.42477381259260      1.05471452783115      1.19654337786741
  O   4.87505980857256      0.62071561402721     -0.07070081028811
  C   4.97817188559140      2.44623665120099      1.54218945461399
  C   6.45811031469769      2.51551664974894      1.40573360273282
  C   7.13800224095465      2.93185899665731      0.32006393085318
  C   6.42894897706331      3.36024745710616     -0.83983532377945
  C   5.87157209594734      3.71766003572097     -1.84135961869261
  C   8.62113983228545      2.92832280696642      0.28956883548401
  N   9.35394741785772      3.31444058750031     -0.67509167066420
  C   9.21977305873775      2.41599866680213      1.51559916071981
  C   8.43361541967823      2.02267568736156      2.50858949046486
  F   8.86506191649765      1.54089069556201      3.65295447897232
  O   7.09480597689086      2.05488424447323      2.51710290118003
  H   2.13235167541130     -2.32603803662282      1.34167886358010
  H   2.54738632978830     -1.27949732811255      2.71114846956443
  H   3.76073085845739     -1.65159841111892      1.47469536640003
  H   2.48033339606926     -0.40621783604471     -0.21394883796103
  H   0.55044661190903     -0.05636384364993      1.79747399118068
  H   2.60990924735439      1.26590736133849      2.32460376287570
  H   2.50343444386845      1.87208504721188      0.67299498533178
  H   4.83471566720741      0.33026001262463      1.90453423980746
  H   4.75826261454635      1.32764408743734     -0.71799731249201
  H   4.70246828292070      2.69981401609433      2.56733038925322
  H   4.52720441053460      3.18218714984719      0.87436130647126
  H   5.37684622934883      4.04518345947716     -2.72528356584257
  H   8.78726515316407      3.63811372896264     -1.45863857731686
  H   10.29249613321805      2.35169181579617      1.60802584924393
