34
Coordinates from ORCA-job 21249optt
  C   2.07907860800135     -1.28364013149031     -2.06930732759957
  C   3.03160794179042     -0.65235619373347     -1.07022996653325
  N   3.61477246035165     -1.66418982412722     -0.21343003186704
  C   4.37227292686629     -1.31184233905224      0.74819088600421
  N   4.74578699958385     -0.03136508281163      1.03664606213709
  C   5.17050772813885      0.42876719535265      2.35079625309012
  C   4.92765808572156     -2.44442391266359      1.62115764981948
  O   4.35026721236266     -3.65631991001038      1.23729200972682
  C   6.44620281118976     -2.54620057245449      1.57421371017349
  N   7.08832784715514     -2.22276619069326      2.69876685218777
  C   8.38057214733211     -2.34290000766287      2.71023181292131
  F   9.00996448546808     -2.01211884238720      3.84147788786815
  C   9.13326004980052     -2.79085706654868      1.62808764655416
  C   10.62222255870365     -2.91302000733971      1.69456327714483
  N   8.48757307338602     -3.11203913639090      0.51718916308199
  C   7.15704630463640     -3.00488791074199      0.45986513987707
  C   6.50444420310471     -3.42516282126769     -0.82296282089274
  H   1.64306560329297     -0.52950232215563     -2.72489936665552
  H   1.27365824181401     -1.79992551031208     -1.54733628864497
  H   2.60793064629383     -2.01431435585068     -2.68121897672622
  H   2.49073024714199      0.09440944507110     -0.47098223311487
  H   3.82452464475109     -0.11249027897796     -1.60634280507515
  H   4.29868580141469      0.67025937871126      0.46845785004471
  H   5.90750080837979     -0.24517998809074      2.77607938086448
  H   4.33115686837479      0.51394440325264      3.04662522875317
  H   5.63248530692464      1.40796116846533      2.23989099464942
  H   4.67340595951408     -2.22601675855382      2.66408032955521
  H   3.78204739525968     -3.44008775593212      0.47343033967534
  H   11.08167972359796     -1.94235673376988      1.88788783687780
  H   10.99014476292404     -3.30566351471674      0.75023759595393
  H   10.91958135726129     -3.57771922843449      2.50678336174726
  H   7.25900202521107     -3.45962078386362     -1.60499308250359
  H   5.69750563848443     -2.75335420812787     -1.11024165259679
  H   6.06732952576646     -4.41802020269166     -0.70600671649814
