30
Coordinates from ORCA-job 21246optt
  C   0.69037559769527      0.39393014525674      0.82898359581681
  C   2.07018786059533      0.07092596101907      0.27744908866293
  N   3.05141551352364     -0.12393549086961      1.35848722199131
  C   3.71367106283607      0.92742471692082      1.92107060298362
  F   3.66326936837053      2.03900044658511      1.19737883249550
  C   4.36459961158227      0.86985284715045      3.08591728225845
  C   4.35671483401410     -0.34574082113883      3.88476254552171
  N   4.82563085234337     -0.41170351984710      5.08108380508135
  C   3.75043602102374     -1.51289714467971      3.22396943715362
  C   3.10398298435982     -1.30093266593743      2.06330691919268
  F   2.41613168313240     -2.26219694870831      1.45830997215486
  C   3.74509867382377     -2.91111681421511      3.87580603319004
  N   4.86935356451102     -3.17456959116589      4.77489368202636
  C   2.41962990948935     -3.12776423323405      4.63915761712346
  N   2.15422128943610     -1.99670303203434      5.51203291994839
  C   3.83456547239933     -3.96921511621564      2.84585139336099
  N   3.94002348274050     -4.81505252621301      2.08102344444211
  H   -0.01593832236120      0.53120999365835      0.01044575906852
  H   0.71602919832643      1.31049343402533      1.41924855808226
  H   0.32897581274313     -0.41635562579825      1.46242018916002
  H   2.44480103678186      0.87547748820288     -0.34884339325035
  H   2.05823342449115     -0.83734230943307     -0.31837584010234
  H   4.87330774682502      1.75305988096901      3.44411579273853
  H   5.19557507636886      0.48723545236866      5.37711319568050
  H   5.06352489140246     -2.32798693586916      5.30676337597950
  H   5.70342156784508     -3.38191363088745      4.23791295433045
  H   2.52163829425186     -4.09121357478565      5.14934275210369
  H   1.60653165207451     -3.20385502200327      3.91375172591131
  H   2.94954281401091     -1.79927223408227      6.11087123765222
  H   1.35804902536322     -2.18684312903824      6.10674929924141
