30
Coordinates from ORCA-job 21252optt
  C   1.07098793336533     -0.33753597521770     -0.30347054525226
  C   2.59118059919267     -0.25633003675465     -0.28068952903719
  C   3.08216983620685      1.08391147409587      0.24194784705108
  O   2.53765513666277      1.40227313434092      1.53059307926063
  C   2.86501262863610      0.50110220814192      2.55884346479516
  C   2.48923760477192      1.16768520915364      3.87636715543861
  C   3.22574295425000      2.41735578771276      4.05571261233543
  N   3.81444416546058      3.39436445753788      4.16215918331251
  C   4.58775291588989      1.22160173705934      0.25824167226864
  N   5.35287143472801      0.17952068763180     -0.06724526951271
  C   6.65538562393500      0.31094270144295     -0.08467854460002
  O   7.45101604985682     -0.72737693196370     -0.41314360711574
  C   7.21853070899859      1.54891401969055      0.23950665172465
  F   8.53638448162577      1.68595542692034      0.21041515926490
  N   6.50905101788389      2.57872152926529      0.57431539914429
  C   5.17744741592796      2.44698005752317      0.60077708460430
  N   4.43284758310747      3.55669419269571      0.91559641593919
  H   0.73815390877266     -1.30086525471615     -0.68876499960662
  H   0.64848039575130      0.44284449336849     -0.93893839624112
  H   0.65018732934437     -0.20729618489096      0.69436231387182
  H   2.99764662186271     -0.38683125067233     -1.28493592286625
  H   3.02017659779393     -1.06437994233694      0.31581865627520
  H   2.68105761592410      1.88090720395136     -0.39281179232595
  H   3.93391107464769      0.26296966284171      2.54725099104320
  H   2.30141125142432     -0.43244751133776      2.46183546688657
  H   2.70490663190841      0.50288001606325      4.71337494618125
  H   1.42184938025152      1.39320486686877      3.88419448301159
  H   6.87496376571673     -1.47528659079824     -0.61621053537880
  H   4.97474510595102      4.29528415115807      1.33922307274954
  H   3.56779223015154      3.37023666122464      1.40235348677806
