27
Coordinates from ORCA-job 21257optt
  C   2.38941113902074      1.26727346928395      1.15904068889907
  C   2.62989713288530      0.18894241174367      0.10956782835038
  N   3.12607388335344      0.66870776781467     -1.19359620977003
  C   2.20894741955500      1.58514180482621     -1.86702252922272
  C   4.45835524600422      1.14095876203878     -1.15293607723965
  C   5.42925022508383      0.25974708662044     -1.54057123881174
  O   5.22063541006672     -0.98026263317113     -1.96421393761889
  N   6.72219663282798      0.69559214539809     -1.48814001019960
  N   7.82213870285386      0.01675227481971     -1.80563861122207
  C   8.77969135474873      0.91499346348053     -1.57515109337386
  C   10.19385697925342      0.52059426750352     -1.81641220643143
  O   11.12916123323878      1.23348451119521     -1.60233329732367
  N   8.37001315682854      2.11772090177904     -1.13467848104402
  C   7.06044755718781      1.96867312673627     -1.08380523683074
  C   5.96840376512480      2.80421980856329     -0.72466064634928
  F   6.24038891027298      4.03772743016156     -0.33968285073566
  N   4.75412765857987      2.40963167601713     -0.75713947334108
  H   2.04581239974340      0.80692688127388      2.08588677199492
  H   1.62658574176596      1.97586413831428      0.83632027859367
  H   3.30073515748068      1.82540628241976      1.37015508155623
  H   1.70401779468810     -0.35544890318696     -0.08817558006113
  H   3.35570439805246     -0.53725984776612      0.48307816689597
  H   1.22334183249774      1.12128575996108     -1.90648940983174
  H   2.55558173499604      1.75329656076878     -2.88610484522350
  H   2.13038723329708      2.55257981808139     -1.36408160318649
  H   4.25137815511133     -1.07224607148306     -2.00639385141509
  H   10.30345914548115     -0.50230289319397     -2.21482162705784
