29
Coordinates from ORCA-job 21267optt
  C   1.06428806146086      0.24317894938050     -0.04366074397377
  C   2.56797274239053      0.19560192856635      0.01891862277260
  N   3.11932607303412      1.23522179844197      0.72386734051660
  N   3.16661325897092     -0.75237667890791     -0.58813811431654
  C   4.61690786774139     -0.89374644468564     -0.62108074506351
  C   5.38833044230022     -0.76646799213773      0.73472213891511
  N   5.99532392077930      0.51390353974946      1.14404169471499
  C   6.30136002034382      1.29422598510807      0.18837258358144
  N   6.95560368189564      2.49935835890250      0.22483995027339
  C   7.21963644515394      3.05613273415403     -1.10533853594709
  C   6.49728324857141      2.07914502673590     -2.00580125602283
  C   6.23882085838375      1.98445459305790     -3.35814831670365
  N   5.52596749864460      0.96174384477091     -3.85087206763798
  C   5.03790332713365      0.05407525995289     -3.04480079215079
  F   4.35702368074454     -0.93112814049014     -3.62177600876243
  C   5.20189992803248      0.04021313872666     -1.65761910469774
  C   5.97056822717754      1.07811942606338     -1.21410402906389
  H   0.64183529250214      0.10848497579549      0.95472630545176
  H   0.70488369061036     -0.54578846039243     -0.69573427071519
  H   0.73028175659072      1.21138001532039     -0.42121540754002
  H   2.49323711258717      1.79355666614789      1.27824514992248
  H   4.07399962699957      1.19896399432795      1.05219645792887
  H   4.78621279300829     -1.91823969677018     -0.95666129071453
  H   6.19805154149517     -1.50056795960420      0.71676251985044
  H   4.70700969914890     -1.08079627282797      1.52683406743365
  H   7.44591154223440      2.80582569124159      1.04739036477751
  H   8.29186345248944      3.09147342994958     -1.31667040753650
  H   6.81940186109848      4.06813734362062     -1.19788920036208
  H   6.59448234847659      2.70991494580215     -4.08040690493028
