30
Coordinates from ORCA-job 21265optt
  C   0.90342933364650      0.17594123007841     -0.35675651157097
  C   2.39151283769950     -0.04247905374668     -0.01863823413170
  C   3.19576809668117      1.17997729165533     -0.48774209004740
  C   2.55677152067745     -0.10190219339462      1.44435316310311
  N   2.69468408956534     -0.13798961784500      2.58245832653884
  C   2.87147855415497     -1.35929818983538     -0.63708808245474
  C   3.71158708287900     -1.33262358788080     -1.75033132494503
  C   4.04657287052294     -2.50754920738546     -2.36976577902144
  F   4.82593019875893     -2.39612045230681     -3.47103214054929
  C   3.65407305735362     -3.76732171813435     -1.92043412138367
  C   4.07523944499448     -5.04908501484304     -2.57270356337104
  N   4.60205805826627     -4.99444501658908     -3.81567956376057
  O   3.93575054264231     -6.13356078821577     -2.02225159534307
  C   2.85913551273660     -3.79325867294789     -0.75135551360830
  N   2.42661228615656     -4.97309578262192     -0.19696335904993
  C   2.42841448020886     -2.58443079711768     -0.14617502967021
  N   1.50770246809151     -2.65308666796802      0.91297186825455
  H   0.54089513362606      1.08817066257692      0.11744599100756
  H   0.30347056797615     -0.66689355617311     -0.02418430048136
  H   0.81242926593472      0.27917476227095     -1.43807827490519
  H   2.85648805017571      2.06132610011157      0.05497969849227
  H   3.02794668682778      1.35036680447881     -1.55053472577729
  H   4.26218036966153      1.04994349444776     -0.30695321445825
  H   4.09535438305160     -0.41412740720563     -2.16585233168012
  H   4.80346404832656     -4.13536813283796     -4.29030301309475
  H   4.89342456742923     -5.87191852755939     -4.21211967514754
  H   2.88675525436834     -5.79525995251995     -0.57031944796131
  H   2.31797651516333     -4.95849626991992      0.80478832690053
  H   1.00843844037241     -3.52467223955877      0.98163787029332
  H   1.80245628205052     -2.29491749901249      1.81062664782300
