27
Coordinates from ORCA-job 21278optt
  C   0.85391861323762     -0.29961421745005     -0.15618575742801
  C   2.32277832253405      0.07838503655858      0.02413690429123
  C   2.75891968372149     -0.24253757869368      1.43523858461387
  F   2.07668034371194      0.47635555719652      2.33292547733023
  F   2.58149751383448     -1.53354101422311      1.74143413129115
  F   4.06400700822362      0.02641111652909      1.63431502525287
  C   3.22618477037706     -0.59100631875306     -0.99482974055965
  C   3.68612128821374     -2.08620129279273     -0.96860461427662
  C   4.04780049011248     -1.73571400457444     -2.44250106480235
  C   4.30293879618499     -2.79007548307334     -3.46580735787002
  O   3.41226972175186     -3.36857616670075     -4.02971875402229
  N   5.11172468111470     -0.71999873399100     -2.28935485796174
  C   4.57918258426908      0.01763101037126     -1.38866900140338
  N   5.06076622263606      1.19465531875784     -0.91899442369297
  C   2.73017467803553     -0.91336695476055     -2.42698564839843
  O   2.56057291221623      0.19008827414631     -3.25492422146794
  H   0.23845191986081      0.15508398720419      0.61866362870697
  H   0.72584481308178     -1.38148496828087     -0.10893669924668
  H   0.50471717850732      0.05137682844643     -1.12547121156126
  H   2.42606212519088      1.16339833151299     -0.07745258971028
  H   2.86452245103532     -2.79311744612655     -0.86427594665593
  H   4.52379770304906     -2.32698590193989     -0.31908364519719
  H   5.36387638151212     -3.01329375413716     -3.67757921723751
  H   5.99608798070723      1.42815799094622     -1.21589811451325
  H   4.82808151653174      1.45569748599817      0.02480212029802
  H   1.85365386447004     -1.56534729792510     -2.42238605525687
  H   2.33236643587872     -0.10637980424533     -4.14185695052195
