32
Coordinates from ORCA-job 21295optt
  C   1.01050277847855     -0.09164661105006      0.12514134135508
  C   2.52065248927823      0.05605098865192      0.16614680150062
  N   3.08965253980566     -1.02127062304519      0.96813100922652
  C   4.52268066773063     -1.17757425137882      0.84130034661420
  C   5.00046192250282     -1.87498108759066     -0.47378716884034
  O   6.34085300554276     -2.28860216715084     -0.36651233173002
  C   4.16484370750086     -3.04484056359165     -0.76109867572460
  C   3.44627547187168     -3.97808482455755     -0.97886214614129
  C   5.20635232131827      0.16577624674028      0.96088730978966
  N   6.53814341582505      0.13489559109029      1.05756981937361
  C   7.22088155170385      1.26780403092569      1.13038167506097
  C   6.57468496668692      2.49016949866433      1.11256566865503
  F   7.29450456206086      3.61564001984545      1.17567316954026
  C   5.20417020643978      2.55064208429031      1.01082869291166
  C   4.48684686298885      1.36301063806263      0.92050167548928
  C   2.98293161106302      1.38392584403117      0.77715591705622
  C   2.32144234302169      1.68808336287343      2.12324658800908
  H   0.73376128722757     -0.98006387587277     -0.44479465998829
  H   0.54689110014715      0.77369012525319     -0.35055053172439
  H   0.60950471314515     -0.19351687902677      1.13397347320565
  H   2.89388587261295      0.02959147907952     -0.86941143730462
  H   2.63085567656428     -1.90249779752604      0.76795134172406
  H   4.88107370797488     -1.81692500863443      1.65294434788841
  H   4.88189378010383     -1.16886316950515     -1.30702450479084
  H   6.81636552046503     -1.59390021834626      0.11761396031044
  H   2.83184014207121     -4.82142873714065     -1.18671387885545
  H   8.30073301123772      1.21551872635801      1.20091820263082
  H   4.70535535496919      3.51264154821463      0.98391524367652
  H   2.72955052687970      2.18488509440963      0.07499441422001
  H   2.46369683737436      0.84985669549546      2.80581919573316
  H   1.25291146988853      1.86515134470640      2.00243342446204
  H   2.76080057551891      2.57886249572450      2.57366171666654
