29
Coordinates from ORCA-job 21291optt
  C   1.03439507751408      0.43154463453093     -0.14015558576225
  C   2.53440545340753      0.37989296088002     -0.06976000403314
  C   3.33410591294364      1.49700710125827      0.06050242433617
  N   2.79826124758787      2.77698404674627      0.18547680755634
  C   1.79860670957685      3.08725269284379      1.18367524686161
  C   0.55028981628786      3.74955508551235      0.61727586915414
  N   -0.39935088668510      4.00760370939182      1.57667673652420
  N   0.33885339610365      4.01639127117991     -0.60173855295802
  C   4.75242129866558      1.31884921140738      0.01621005503643
  C   5.26900131447035      0.01020019173373     -0.17659332666972
  N   6.60180052164313     -0.23106327111565     -0.25718972215631
  C   7.43341589761722      0.76317549150007     -0.13453052504739
  C   6.99945578967726      2.08202770541894      0.09267114880147
  F   7.92100181883331      3.04054887372871      0.24282939735721
  C   5.67675857784510      2.37574767939162      0.17140461389178
  N   4.46748809090808     -1.07385335497013     -0.28027637632349
  C   3.18150285061406     -0.86944730584758     -0.21844947027509
  H   0.68884137861254      1.35580572280836     -0.60298080117298
  H   0.56548613662905      0.35863942375687      0.84407526954886
  H   0.66496865055939     -0.40541288502609     -0.73198597956251
  H   3.45822318353169      3.52081674174044      0.03735239429367
  H   2.21702334463055      3.75505566886905      1.94563926551389
  H   1.50585194419238      2.17661090772426      1.70525530345142
  H   -0.10062510610352      4.12183032164172      2.53076156692368
  H   -1.15652872541003      4.60484466434407      1.28333425268362
  H   1.12355214162419      3.69427208191720     -1.16470627783647
  H   8.49772891576702      0.56017574160075     -0.20327274159884
  H   5.38403843777518      3.39898534284555      0.36573951740782
  H   2.55202681118101     -1.75104045581266     -0.31724050594614
