36
Coordinates from ORCA-job 21311optt
  C   7.70283408220224     -5.22043543027380      0.08364422780174
  C   7.55841151676329     -3.85605389103621      0.71252096100268
  O   6.30941373877523     -3.30987209649531      0.26771861722838
  C   5.85455737821433     -2.18563659437674      0.87998737616961
  C   6.61516043833343     -1.01699137999625      1.01225710468858
  F   7.85787143933590     -1.01457033827310      0.51615123926688
  N   6.21374391085795      0.08838465185026      1.56176078977323
  C   4.95842140790519      0.13068053630317      2.01656533220886
  C   4.09534209232018     -0.94004293781715      1.91174801544698
  C   4.54332914557940     -2.12631265756455      1.33362330048029
  C   3.61366095200231     -3.31780653589687      1.21191777102407
  C   3.56865280038865     -4.12796213483522      2.50388538061517
  C   4.92092654597332     -4.68761994459930      2.92011039749673
  O   2.28969328274481     -2.90177214667621      0.95287176816110
  C   2.10362227351649     -2.31674510737425     -0.32225814914204
  C   0.67152920901929     -1.84264644633108     -0.40096625213629
  N   0.43286428791168     -0.86155334541416      0.65158026637269
  H   8.63914400468861     -5.67735560079911      0.40479727126357
  H   7.71239364242121     -5.13728549995150     -1.00280013250107
  H   6.87920879031884     -5.87283371591511      0.37349076917870
  H   8.37784159635124     -3.20249549752658      0.41642748614449
  H   7.54427089098033     -3.92105378545721      1.80434383273407
  H   4.64032076193710      1.06534441344006      2.46114597692487
  H   3.06911463087988     -0.85976637977814      2.24464424712128
  H   3.96688135956014     -3.95667865393729      0.39404057156947
  H   2.85102956113374     -4.93586658092848      2.34952500529558
  H   3.16316957780049     -3.48349775863034      3.28839499535064
  H   5.36472066781126     -5.27668888948523      2.11532291386680
  H   4.81896900448711     -5.33080335197143      3.79360026252309
  H   5.61754261700866     -3.88756979301395      3.17600427514780
  H   2.31278207582282     -3.05587800171650     -1.10505511886440
  H   2.77948906137305     -1.46446104640805     -0.45048611276679
  H   0.00821066190269     -2.71509749323623     -0.34883039537262
  H   0.52049374653446     -1.36610946380098     -1.37131917017988
  H   0.53893252905834     -1.31125376092247      1.55357723629054
  H   -0.51054968191386     -0.49869334115458      0.60305793981518
