27
Coordinates from ORCA-job 21313optt
  C   1.01431690991826     -0.05150189627578     -0.21830572419366
  C   2.51120963004447     -0.12318664982814     -0.16669984278311
  C   3.22205897457104     -1.32717593666379     -0.18813969181270
  C   2.54520188599185     -2.58270645418293     -0.26136912653529
  C   2.00769295135775     -3.65275837253149     -0.32230719967364
  C   4.62637563330158     -1.30151423976704     -0.13108902043140
  C   5.34114543977686     -2.54599480268232     -0.16491377580046
  N   5.94184118889261     -3.52395568232327     -0.19596806864326
  C   5.34291676498278     -0.10589636810177     -0.04337751472912
  C   6.84125954131888     -0.09182846640885      0.00871393660071
  C   7.43882959250791      0.70084576748792     -1.15856060444036
  N   7.34786786093073      2.13048705383373     -0.92705689855502
  C   6.34198149873132      2.77085724121970     -0.28798210694883
  N   5.18906435210144      2.37818312077566      0.09807438176705
  C   4.64490342026296      1.11032725188374     -0.03384047789402
  C   3.24725245076336      1.04527948650271     -0.08608458352386
  F   2.56928072732164      2.19316180209125     -0.06801744870137
  H   0.58619861642368     -1.03407117915841     -0.39885707445080
  H   0.69208203420287      0.62950375930133     -1.00592483687562
  H   0.61921366206627      0.33540049131302      0.72248363530122
  H   1.54044711239888     -4.60694625869896     -0.37887674037039
  H   7.22594653756654     -1.10944374524077     -0.02062068348158
  H   7.17830258784447      0.36240229605475      0.94432867379567
  H   6.93428626402310      0.42078490534314     -2.08590557370792
  H   8.49531899542936      0.45987542461198     -1.27297512696108
  H   8.16528223545031      2.68415023168684     -1.11628506988514
  H   6.57772313181898      3.81672121975772     -0.09644343706599
