27
Coordinates from ORCA-job 21329optt
  C   0.85014161706500      0.33313367194853     -0.52105772041131
  C   2.12301281473924     -0.02393501479519      0.19360079863312
  O   2.40306293975424      0.36048983297413      1.29546329128162
  C   3.11178076151216     -0.94179963876862     -0.57913264804460
  C   3.89623231572529     -0.14105084108253     -1.59110012755601
  O   4.03564122613463     -1.54583627611994      0.27038435829495
  C   3.48273758630716     -2.48165203010873      1.15397169979462
  C   2.76946789867059     -3.59961638262349      0.37188394261675
  C   3.67239338407955     -4.44999805520543     -0.40252910069229
  C   4.38243387029423     -5.15867130313875     -1.05308293232834
  C   1.78865742607201     -2.91557257650871     -0.57597263114323
  N   0.58627668956089     -3.20817115471581     -0.77875525667857
  O   2.34187451358978     -1.90463194946841     -1.29787291014645
  C   4.61502168555082     -2.98356747140674      2.04442434109620
  F   5.70999961512813     -3.29643203545001      1.36482790208338
  F   4.94075956032271     -2.05785142969585      2.94522060530062
  F   4.21667856866572     -4.07515828539638      2.71213629473500
  H   0.34896084917574      1.13548033685064      0.01292208030986
  H   0.21197159277424     -0.55351383996314     -0.56321342065909
  H   1.04685798170535      0.61828580734440     -1.55453868036431
  H   4.45891187835757      0.63526100869293     -1.07533179346830
  H   3.22694744719695      0.30779012300804     -2.32166172952755
  H   4.58373325613203     -0.81639926172457     -2.09772673197359
  H   2.75764079433965     -2.00696839205674      1.82377641882457
  H   2.20450038683052     -4.21232531150475      1.07547589845485
  H   5.02176190272358     -5.78641896207027     -1.62687154757301
  H   0.31054143759217     -4.02587056901455     -0.24024040085887
