30
Coordinates from ORCA-job 21325optt
  C   0.93239430145173      0.05503141178998      0.38650397628406
  C   2.43876147289631      0.13577289911415      0.18412536407077
  C   3.15519814914779      0.41408151959782      1.49833380979417
  N   4.61431140993647      0.39354459955293      1.32936196762350
  C   5.22860485521622     -0.85972040753515      1.34798507251074
  O   4.57478210741440     -1.87042430582488      1.56454956431151
  C   6.66604325370830     -0.88401095229248      1.14848519730182
  N   7.22955642627030     -2.15561695970200      1.21425255624898
  C   8.32146176718277     -2.60855595163888      0.52250847729906
  O   8.71595485642274     -3.74473379778895      0.59132805966811
  C   7.36557059952474      0.27863140056726      0.99470471738767
  O   8.71410117083524      0.28258774383531      0.85892080445018
  C   9.41448862370238      0.93465469223728      1.92150445880952
  C   6.65191525301864      1.50180979698313      0.93792902254739
  F   7.29623074716566      2.65605875461914      0.66038653295334
  C   5.30723317381847      1.53873394657927      1.09390174388789
  O   4.57885860969233      2.66629630558799      1.01487163731478
  H   0.42178785908708     -0.13394083774191     -0.55699708434953
  H   0.53896131302896      0.98574403329733      0.79977444139297
  H   0.67801781287101     -0.75345326037616      1.07367732354513
  H   2.68657346352017      0.92499514128468     -0.52976887425081
  H   2.81576698991241     -0.80600005086168     -0.21897480115682
  H   2.92298292669876     -0.36167986102423      2.22542057250775
  H   2.87390240575289      1.38333000044574      1.90285001519860
  H   6.64001959026106     -2.86190427971447      1.64126119416976
  H   8.80019202718328     -1.83994227391078     -0.09550090977678
  H   10.47120052058593      0.84011310319385      1.68898622335030
  H   9.19846281613937      0.43729775682812      2.86864902473207
  H   9.14251073624941      1.98835122045154      1.98062425001085
  H   5.17315476130507      3.40794861244606      0.84234566216299
