29
Coordinates from ORCA-job 21344optt
  C   2.34313836007590     -1.23723948784689     -1.42410956979111
  C   2.38081629756239     -0.16897078218090     -0.33728113450418
  C   2.91011675431386     -0.61634614155479      1.03810855242034
  N   4.25822075813217     -1.12279265983535      0.92374712202655
  C   4.67409610214675     -2.30267013613507      1.05657646328015
  N   4.05179209722452     -3.54003395692981      1.25494658767156
  C   4.94273287279946     -4.61764143689991      1.69844662011156
  C   2.71273789826436     -3.81266861947249      0.99717810808996
  C   2.31118031885733     -5.06895198709635      0.51395656970674
  F   3.22187366375871     -6.02014102607243      0.24340117780976
  C   0.99235290578331     -5.34247704164411      0.26216540609310
  N   0.02460794944666     -4.44299884629227      0.43373265548383
  C   0.37818246086620     -3.25856068948283      0.88607803601290
  O   -0.58370525180669     -2.32900403212279      1.01239494260942
  C   1.69183327124436     -2.88981611709860      1.20633369160593
  C   1.94545449801593     -1.52720910103096      1.77539912949540
  O   1.38370492115711     -1.16914851010553      2.77601554339930
  H   2.18005784655803     -0.77063024525076     -2.39575681295400
  H   1.54413522341557     -1.96206266431437     -1.27193001474745
  H   3.29083891573281     -1.77778436365662     -1.47208843916224
  H   1.38885220631982      0.26558273699666     -0.19180888461021
  H   3.04190151136099      0.63904509654563     -0.65607838297472
  H   2.97518114018519      0.28091662130657      1.65758014350694
  H   5.75504570815860     -2.44048976393151      1.01683481080690
  H   5.68894933344946     -4.19224298684034      2.36576998134468
  H   5.43893824870779     -5.11671444980796      0.86668069612126
  H   4.37070256461583     -5.35065853468125      2.26009609822648
  H   0.71682074799808     -6.32034033020253     -0.11480887075433
  H   -1.41555932434453     -2.74695054436236      0.75241977367544
