29
Coordinates from ORCA-job 21354optt
  C   1.17173286186841     -0.96842665137233     -0.57925417330070
  C   2.58996504144204     -0.50322157887141     -0.28352165633531
  C   2.62589586980482      0.98208181144302      0.07080941563021
  N   3.13653693309406     -1.33205127265115      0.77891888543537
  C   4.47744868873303     -1.37720662204097      1.07931004551166
  N   5.43728205954118     -0.85870752011295      0.41623660674310
  C   4.81385943552279     -2.13166315161850      2.31589203922408
  C   6.00584895657656     -1.96475087410791      2.98560713358232
  C   5.95805917608030     -2.77591181146575      4.13953763651868
  C   6.82520701474581     -3.01282954108205      5.15128168965156
  F   8.01491601375626     -2.44168068979473      5.16785211514345
  N   6.63451700114241     -3.81202307798480      6.23379337755418
  N   5.57763620617466     -4.48185040357752      6.42102151842263
  S   4.27629868854502     -4.51279254808309      5.41281852912625
  C   4.65469550039397     -3.46894796851034      4.12926098644350
  C   3.97590867097495     -3.08638020994567      3.00878556450486
  N   2.68415074196986     -3.48284128406793      2.62090438125340
  H   0.73216929519853     -0.36993027839098     -1.37678087598578
  H   0.54310697512098     -0.85642984644352      0.30782655547302
  H   1.15918364301833     -2.01563733855640     -0.88160301200860
  H   3.20073621362321     -0.67797209918760     -1.17384611724195
  H   1.95686257218126      1.17664086674674      0.91170327514034
  H   2.29704156691252      1.58731337280455     -0.77517607136680
  H   3.63003424937858      1.29690093305604      0.35439465412276
  H   2.50249587143416     -1.55732166217609      1.53335558538283
  H   5.10805686332183     -0.33074966455370     -0.38761538132116
  H   6.81009722150544     -1.31961459141296      2.67486958148225
  H   2.32495913824601     -4.25114077185839      3.17064057315074
  H   2.62829752969291     -3.71685552618357      1.63697713806309
