26
Coordinates from ORCA-job 21350optt
  C   1.05115104503984      0.03855362387512     -0.21244345206925
  C   2.52051314596230      0.14149148850200      0.02043022320664
  C   3.19959288115584      1.31692182629091      0.14362289806754
  F   2.53268086609025      2.48333223009303      0.07095318969265
  C   4.59012685527573      1.34661723872160      0.34355016698114
  C   5.28356734254693      0.17313111940634      0.43103292619235
  C   6.69436817610885      0.09047117232549      0.64034141019903
  F   7.33984844390878      1.25464268537913      0.73066365084317
  C   7.36483545284863     -1.07621516837939      0.75017886889649
  C   8.76835745000902     -1.08495718881067      0.97990490906294
  C   9.94964764933213     -1.14113744065299      1.18010406896164
  C   6.64319052210550     -2.37235577710512      0.64637800895834
  N   7.20192712955726     -3.52368384457985      0.74411232833520
  C   5.21369432436790     -2.29156589476002      0.42007327234588
  N   4.42427914359104     -3.47573148306773      0.30445079150482
  C   4.58976143221182     -1.08908263135034      0.32552623363322
  N   3.22911319181545     -1.01021571676427      0.11268104880204
  H   0.61151283552299      1.02585842257857     -0.31783279668414
  H   0.56992071870717     -0.47440097745831      0.62215422299670
  H   0.85416824396957     -0.53510022218082     -1.11970299656431
  H   5.09613045523345      2.29954120474031      0.42907575361266
  H   10.99768376442798     -1.17621603080337      1.35931469604975
  H   8.20335463362468     -3.43196317245740      0.90326667779284
  H   4.79533294139992     -4.04404455734556     -0.45344073697722
  H   4.57345051565243     -4.04892298876248      1.13152724792946
  H   2.76979083953447     -1.91196791743417      0.03707738823041
