29
Coordinates from ORCA-job 21360optt
  C   0.97725365932705      0.06632431299456      0.18344680006325
  C   2.47551619812592     -0.02669306678289     -0.06621860385333
  O   2.87776718426455     -1.32239154140040     -0.48954793562219
  C   2.40595320308974     -1.66894057183462     -1.77644619334989
  C   2.87249184795212     -0.62468051102977     -2.78681846248508
  O   2.44233228303308      0.66209857461210     -2.38283361290701
  C   2.93419762534478      1.01218049976543     -1.10167545149229
  C   4.39703191987090      1.16967056250766     -1.09622048418155
  C   5.58625079516908      1.30373830307283     -1.06988750465539
  C   2.92560061525504     -3.03071125896149     -2.13512926750362
  C   3.97309623565501     -3.62985856539381     -1.46377926592807
  C   4.38313800244657     -4.88458725269107     -1.89864461962984
  F   5.39025277489705     -5.48124025006089     -1.25343638597119
  N   3.86432587640875     -5.54460645327015     -2.89315453500635
  C   2.85360736552645     -4.96807227165411     -3.54404916961276
  C   2.35365213746100     -3.72467282776084     -3.20555758924627
  O   1.31356745497186     -3.13662901916059     -3.86385290682378
  H   0.64933084629441     -0.78836382424131      0.77460921486923
  H   0.41308501847713      0.09499009965292     -0.74824159409517
  H   0.75372062037987      0.97716799810950      0.73956623757439
  H   3.01760740441366      0.14170776649461      0.86428291874726
  H   1.31050087195170     -1.69886309796060     -1.78627114598151
  H   2.43577209640047     -0.81138104989162     -3.76534770274047
  H   3.96577178144468     -0.65518908916948     -2.85608091094378
  H   2.47920939374482      1.97587657681268     -0.86500625292946
  H   6.64320506097174      1.42433753556720     -1.04837121267931
  H   4.44782661454448     -3.14399505384969     -0.62428649001576
  H   2.42080994422860     -5.52550357316982     -4.37016365177471
  H   0.98412516834945     -3.72271295130633     -4.55288422182531
