34
Coordinates from ORCA-job 21378optt
  C   1.53631759619959     -1.32729281563492      0.34591482627722
  C   2.52733191782159     -0.16080589136544      0.24951427193263
  C   3.91822428785360     -0.66584062546202      0.62323446736484
  C   2.50902155298315      0.37269789162200     -1.20012806033536
  C   3.36680111868415      1.58522591186271     -1.41141999428652
  C   4.69611626529320      1.45353992061823     -1.79087502003435
  F   5.18520278038576      0.22764786573642     -2.01606689918391
  C   5.54273410428353      2.52869154353385     -1.94625105974428
  C   4.96156538175655      3.75766059205422     -1.69067722210416
  F   5.72630517949159      4.84517027262937     -1.79312330797928
  N   3.71812501349883      3.95776257813540     -1.36086358951858
  C   2.91423859277064      2.89499392740906     -1.22053656559507
  C   1.47945040465388      3.22095984657962     -0.88637814894109
  C   1.07459839768208      3.07648503596315      0.58945568462430
  N   1.95829260235352      3.88689943757279      1.41160091784922
  C   0.94242325740952      1.62033369620166      1.06287497850857
  N   2.22278955232487      0.93518804701467      1.17101461153522
  H   1.81565104069689     -2.12803718615755     -0.34153040013430
  H   0.51923756769593     -1.01944769074399      0.10016474108304
  H   1.53517330414542     -1.73492915245208      1.35866876555726
  H   4.23876561829622     -1.46270338571506     -0.04800146726192
  H   3.90564849964152     -1.06337444928261      1.64080362847524
  H   4.64743845678443      0.14326364726841      0.58578569614175
  H   1.47800689784286      0.60215876610039     -1.47585716020125
  H   2.83699873651925     -0.43279685613624     -1.85869349808386
  H   6.57482485150967      2.41861599920750     -2.24144775376893
  H   0.80778018692644      2.61258360544670     -1.49614921676414
  H   1.33597952336620      4.26414088765276     -1.16245240576608
  H   0.07364712993429      3.51367586728463      0.66320287398583
  H   2.89087313141247      3.48474507879651      1.40654717026413
  H   1.64296307803738      3.89632676163951      2.37494401599660
  H   0.25211902466514      1.08757312947909      0.39922087261883
  H   0.46305108892725      1.64223651961387      2.04565854554654
  H   2.40030385815251      0.63465122352733      2.11884570194186
