28
Coordinates from ORCA-job 21372optt
  C   3.10406091961899     -0.83269058571443     -0.83570220205365
  C   2.36599908730601     -0.06343235458138      0.25009969831563
  N   2.89574400023669      1.27888120840223      0.43842641028709
  C   2.79377598662297      1.79539629580555      1.84315877210630
  C   4.20794367235982      1.22790336648333      2.13848235984436
  C   5.14244092683875      1.87263196319200      3.13752901006102
  C   4.37493473373109      1.39260453761416      0.60923923252605
  C   4.70895919428653      2.83567708129531      0.27151987090824
  O   5.62482976690357      3.18455314798566     -0.42603948977092
  N   3.84348639515785      3.72631853766693      0.87742350613409
  C   2.85511968211787      3.29914805244171      1.76578471823642
  N   2.10748880329205      4.02943820838415      2.47411422706222
  C   0.90308474913788      0.07911625063280     -0.14891993706514
  F   0.30555441145932     -1.12375862202749     -0.13837526357140
  F   0.22953489972381      0.86450425491725      0.69730972940386
  F   0.75319641231437      0.58721153309888     -1.37144006266764
  H   4.06543006564035     -1.19108253977330     -0.47311271123153
  H   3.26386085720194     -0.19148265266409     -1.70222245250120
  H   2.51958567994508     -1.69915656129952     -1.14153769134699
  H   2.35215654470123     -0.65449967600391      1.17748101091638
  H   1.93257755316524      1.48451266923092      2.42743450509864
  H   4.10496773545206      0.16277740222420      2.35149194407481
  H   5.28761051312884      2.93514458191099      2.94044702689961
  H   6.11941741441214      1.38858176905866      3.11300627318184
  H   4.74103850377296      1.77166076810588      4.14664171954831
  H   5.01363541807326      0.73036918223833      0.03266509309644
  H   3.99967913093979      4.71122419738153      0.71342080020432
  H   2.28688694245950      5.02344798399360      2.33267390230281
