28
Coordinates from ORCA-job 21377optt
  C   3.14496142143180      1.41789548320442      0.28426965971657
  C   2.42694652140257      0.15540773368327     -0.09447725323583
  N   1.32086582301510     -0.20602894223146      0.42227330836497
  O   0.86618345395022      0.70400377178068      1.36491998428366
  C   2.99991323876208     -0.78093536147831     -1.08437558173524
  C   3.66327705727760     -0.35363597061111     -2.22601096322757
  F   3.75444027081541      0.95778060923003     -2.46653224419466
  N   4.21401303664006     -1.11900560068007     -3.12797676647548
  C   4.12658802204968     -2.43753119436268     -2.96966083398159
  N   4.70038077384190     -3.20164766751530     -3.96546726340624
  C   3.45005925432790     -3.01916917805933     -1.88408868036068
  C   2.90203788975641     -2.16529181940011     -0.94762585334743
  C   3.29967548919262     -4.51214469092773     -1.77279727003047
  O   2.93676529389616     -4.85730518577620     -0.45893379843432
  C   2.23623877813360     -5.02269157704390     -2.74204211887719
  O   2.03134422254576     -6.41378308949661     -2.55460469060457
  H   3.13193780264624      1.52926354594940      1.36761500438470
  H   2.63624228804005      2.28451581378539     -0.14040488222629
  H   4.16974143359407      1.40616533891878     -0.07476551170800
  H   0.04267033623401      0.31130232874743      1.66814225511516
  H   5.32434271332258     -2.68132457388364     -4.56336026620116
  H   5.04002475325373     -4.11358807524847     -3.70595373661147
  H   2.39587238460385     -2.57708617730117     -0.08521772281105
  H   4.25745218554802     -5.00130294133406     -2.01894796666540
  H   2.56556490253929     -5.74803259515343     -0.49571798893051
  H   2.50204850762945     -4.78167740112198     -3.77406682839386
  H   1.29118681960846     -4.53504133525819     -2.49991376722949
  H   2.70622532594132     -6.90711124841561     -3.02927822317651
