31
Coordinates from ORCA-job 21373optt
  C   3.54838879860185     -0.23990032777027     -2.54693126339678
  C   4.20855300737734     -0.28246385319110     -1.18886907302362
  O   4.32253855417976      1.04172065111930     -0.70868520142026
  C   4.96308119817680      1.11531374464722      0.53188872887791
  C   4.99405842377537      2.53326178832820      1.01604628063070
  N   5.68611127009164      2.72201164679808      2.14859485256478
  C   5.70803639717419      3.93513644594869      2.63463146182562
  F   6.41355934004623      4.09462575204150      3.74152760692079
  N   5.12295101794818      5.02727944950346      2.17604205192106
  C   4.46348466944711      4.81928894392043      1.05402002622600
  C   4.36444612539496      3.59732977087114      0.39778906241201
  C   3.52659573841626      3.80076803197357     -0.84581320611401
  N   3.56097997120780      5.25828143739624     -1.07968323102560
  C   4.70816579434515      5.61177511641097     -1.91238286370912
  C   3.65008117862681      5.84318286705432      0.27474123645559
  C   4.15126560909989      7.20815633867725      0.34252367018253
  C   4.55271915978600      8.33066945745453      0.43662082436989
  H   3.44108553569468     -1.24722284820727     -2.94887126679874
  H   4.14867079128148      0.34914472904802     -3.24003525321219
  H   2.55958046639908      0.21265886543437     -2.47275088807877
  H   5.20544308992909     -0.73609244528289     -1.25298326588185
  H   3.61704766681198     -0.87858671270276     -0.48271746021283
  H   5.99300175585250      0.74087017555614      0.47470305919644
  H   4.44182589159119      0.50847455020301      1.28572885749357
  H   2.49713146640821      3.47959504337180     -0.66206309971830
  H   3.89321468604836      3.26409274363352     -1.71504442638170
  H   4.58587601830736      5.13525464762524     -2.88380543304628
  H   5.66921961904332      5.29256878668171     -1.48238479487060
  H   4.73665721651516      6.68903039072304     -2.05772077733155
  H   2.63976543886822      5.83294166781960      0.70495919588351
  H   4.92246410355393      9.32483314491285      0.51892458926183
