26
Coordinates from ORCA-job 21398optt
  C   1.04229445296125      0.30014764511140     -0.32579894650155
  C   2.49830331295596      0.05549319731465      0.05825668670892
  C   2.80526110339554      0.59494743683650      1.47441045771794
  C   2.09864762627338     -0.14110345775837      2.51835902686200
  C   1.50688441334017     -0.77800147214284      3.34178159845715
  C   2.96392790534761     -1.38016108646534     -0.05786008968991
  C   4.30709672549539     -1.63183428860495     -0.31562436182007
  F   5.14287109812210     -0.59012579125982     -0.49338201258434
  C   4.87273133091152     -2.88560293620594     -0.40208055666600
  O   6.18986461567343     -3.11185275478211     -0.65598639415516
  C   4.05787984525680     -3.99748480290306     -0.22049101284771
  O   4.55985437245675     -5.23828269966263     -0.29865246500918
  C   2.70254768058048     -3.81067049311929      0.04747150660387
  C   1.85255566579789     -4.94101990645796      0.24480879947630
  N   1.17626664782693     -5.85359194717365      0.40243092657729
  C   2.19035444780609     -2.51345273228552      0.12572917921534
  F   0.89056959518268     -2.39979244070370      0.38835565854467
  H   0.87789255010223      1.37411214671302     -0.42164759258761
  H   0.35968623365653     -0.08592559752733      0.42785598689152
  H   0.80344768074360     -0.16768579392314     -1.28059005661891
  H   3.12446053419976      0.63415641895104     -0.62338715949467
  H   2.52315537983973      1.64982137012999      1.51665462460308
  H   3.88012092786209      0.54185997185885      1.66255459850744
  H   0.98114262482365     -1.33789086974909      4.07805371182154
  H   6.65663104689034     -2.27538159486270     -0.76343086520411
  H   5.50755218249806     -5.18767752132799     -0.48179124880783
