33
Coordinates from ORCA-job 21394optt
  C   6.70600347410253     -1.39969761995891      1.51821228107318
  C   5.48753004148268     -0.83332952353688      0.80924504848412
  O   4.54090546459818     -0.33458951909754      1.74497774914178
  C   5.86802020823288      0.23450296767253     -0.20822216352531
  C   4.65694334007206      0.76655532852839     -0.97610137041294
  C   5.05583665799446      1.83577165475664     -1.94292995550511
  C   4.71590025053929      3.12831868310541     -1.78732926850557
  F   3.96146709878750      3.54224553536676     -0.76275829483464
  C   5.13081989380135      4.17307148441748     -2.70154450947143
  N   4.89810270744046      5.42059878984605     -2.66796342213056
  N   5.89576382623830      3.64390145915197     -3.74215363013057
  C   6.21544012161363      2.33316829337526     -3.86056272745878
  C   7.00082846412716      1.93260737467710     -5.07793674463772
  C   6.08078879866570      1.45312309609269     -6.19495039466509
  N   5.35850706373389      0.34403230757859     -5.86387738211250
  N   5.99044851973006      1.97632866713877     -7.34974578387388
  N   5.83937902325514      1.43406536839781     -3.01474369067050
  H   6.40347054311999     -2.15070250776955      2.24706369215854
  H   7.24234606005994     -0.60404864216875      2.04311122016062
  H   7.39596356626204     -1.85742671777000      0.80818787144017
  H   4.96075024285738     -1.64093947606131      0.29327432473800
  H   4.97609750657300      0.32062079416178      2.30146424654826
  H   6.59592705001584     -0.17382120277996     -0.91315660123933
  H   6.36030455796340      1.06111010197615      0.31776812536137
  H   3.91323972636876      1.14225166506562     -0.27629231645804
  H   4.20443160660209     -0.05194214458123     -1.54276696237976
  H   4.32934330774797      5.65623078184272     -1.86024924437788
  H   6.19470253140327      4.31191030416335     -4.43973653697646
  H   7.66005027898942      1.11364021558360     -4.79099438031107
  H   7.60357630029851      2.76285759215004     -5.44229914758890
  H   5.23877929657896      0.12004750060495     -4.88845409217877
  H   4.62907324633150      0.07774409906731     -6.50455711548975
  H   6.62125922441212      2.76379328900300     -7.45397882417128
