29
Coordinates from ORCA-job 21393optt
  C   0.94701399241701     -0.31239441132405     -0.06245057405151
  C   2.43558392667416      0.04768990027978     -0.04009363215083
  C   2.91722040408100      0.38842640929103      1.33356122601942
  C   2.96869640684915      1.62045637845813      1.90718252633297
  S   2.52723561488984      3.13494987375669      1.19786457163181
  C   2.89468377391035      4.19120488082464      2.48842811175700
  F   2.65057491631639      5.46630197827667      2.18093042230894
  C   3.36841459059431      3.89487826320645      3.71684067662688
  C   3.64173024974258      2.54638351021939      4.11766984907721
  O   4.11042004362327      2.27385871178121      5.35921820344428
  C   4.32345072179277      3.32808001030200      6.28221063448851
  C   3.44584827203000      1.48879177812503      3.28477286122369
  C   3.66746255737543      0.08466122953069      3.47904855133251
  O   4.12824291785194     -0.50024287825543      4.61850284502390
  C   3.35555033455760     -0.57755827058938      2.32628798771583
  C   3.47192249230682     -2.04748488433821      2.09593840721653
  H   0.62038677801341     -0.58510923722653     -1.06669369066374
  H   0.34546077212732      0.53153012691507      0.27848471098562
  H   0.74533534109036     -1.15168409262020      0.60425412647954
  H   2.61821123701609      0.88886729639158     -0.71553094803502
  H   3.01726694844849     -0.79128707695405     -0.43053289153576
  H   3.52531529715720      4.72811825331095      4.38485220458865
  H   4.70249452418170      2.86063416749750      7.18626588887067
  H   3.38938805926738      3.84596011018703      6.50619165321794
  H   5.06254841420293      4.03652423048113      5.90452847629411
  H   4.28722433097563      0.19018705542793      5.27144459138917
  H   3.77469993005242     -2.55225483928512      3.01204016155583
  H   4.21529338111133     -2.26925270175083      1.32550348514703
  H   2.52432377134304     -2.47823577191913      1.76327956370875
