33
Coordinates from ORCA-job 21399optt
  C   2.67473319084161      0.97089346005502      0.81690593881192
  C   2.44004036120360      0.50649966146579     -0.61188387171952
  O   1.14226619001060     -0.04727302296264     -0.76029650483276
  C   2.64888298660101      1.60434593022040     -1.65229613712114
  C   4.02843288236035      2.23261795575369     -1.60214984349017
  C   5.23887609614703      1.30801284677951     -1.83472885063593
  C   5.05429503521025      0.54666442692137     -3.15782497430589
  C   4.89784273795134      1.53632832553504     -4.32306336193784
  C   4.05651001837601      2.77932358356946     -3.97356203714126
  N   4.24165327326671      3.30344870404096     -2.60557036462432
  C   5.62401367163893      3.67342761664084     -2.30732911138425
  C   6.35058144594444      2.33392130113966     -2.03373855299509
  O   7.53112927336872      2.15148035252706     -2.00523003241924
  C   6.30358421124834      4.60305030572854     -3.29353512854905
  F   5.46327368867918      5.55375649012569     -3.71380561270414
  F   7.34041931753255      5.20659479992374     -2.70966486072412
  F   6.76598537553155      3.98384287860420     -4.38553909695148
  H   2.39438253916061      0.17823299701027      1.50929929039636
  H   2.07137930189613      1.85639667120312      1.03726424152523
  H   3.72145443903059      1.22262161114080      0.99287672685258
  H   3.11592574002345     -0.32548592158797     -0.82982026891624
  H   0.49185335913732      0.62662592474015     -0.53475747957338
  H   1.91106823848624      2.39763506515233     -1.48814899634866
  H   2.43507404072236      1.16793403712120     -2.62725640195204
  H   4.13515873465674      2.71406383600745     -0.62482183167563
  H   5.48074415224604      0.63407574434330     -1.01325738528096
  H   4.18612977877700     -0.10960481788921     -3.07199598508966
  H   5.92228363982994     -0.08999618195558     -3.33219742777550
  H   4.45353829199213      1.03920604540461     -5.18621574833417
  H   5.89317422818139      1.85624441840570     -4.63381310936819
  H   2.99373841358338      2.57012482337395     -4.08212576690332
  H   4.27988078796518      3.58361138927546     -4.67356099325616
  H   5.62069455839919      4.22637874218603     -1.36115646157593
