17
Coordinates from ORCA-job 213optt
  C   -0.79915168785575      0.19703297635121     -0.06750456808570
  C   -0.30023055765544      1.44708624385843     -0.02929468073741
  C   1.15170029302808      1.37273933510018      0.00377234269733
  C   1.52003678699534      0.07692572542731     -0.01518615897504
  C   0.31300587846145     -0.80080275780962     -0.06362652487226
  H   0.26360961382794     -1.47965078887003      0.79339684688793
  H   0.30598070367829     -1.43984885845923     -0.95210621269180
  H   -0.89333029891695      2.35035222361227     -0.02476270801695
  H   1.82256993153710      2.21851154979302      0.03488798201676
  C   -2.23862540543660     -0.10685819401379     -0.10313642997238
  C   2.88644804422256     -0.46174491183190     -0.00460751646957
  O   -2.47781320496897     -1.43285883363050     -0.12140575858814
  H   -3.43863336288621     -1.54914136182806     -0.14303706421084
  O   -3.11585131648357      0.71302759767492     -0.11471793943174
  O   3.15150119851524     -1.63196981137585     -0.08078389788513
  O   3.82987657187732      0.49382982398999      0.09912890153429
  H   4.68790681206016      0.04637004201164      0.08898338680065
