27
Coordinates from ORCA-job 21413optt
  C   0.86118934748250      0.14571147060694      0.07338666578975
  C   2.38873760533695      0.08080952177582      0.03175850970974
  C   2.92724929285424     -1.35936013942256      0.01083579101843
  N   2.67865036795952     -1.97727488279489      1.31946000846079
  C   3.50077277319341     -1.40025004315314      2.35660788817580
  C   4.97157551845033     -1.83417799433159      2.28894830342152
  O   5.36809144224065     -2.66672070582194      1.52633536405334
  C   3.43047541905639      0.10673953563403      2.32843597685087
  C   3.85070366163122      0.87073176763067      3.41011298859332
  F   4.26851908056279      0.24039747000053      4.51294070763645
  C   3.83272218832432      2.24400742099352      3.39381581308114
  C   3.35574903894423      2.80226268224999      2.21636122760657
  F   3.32672719917680      4.12899912980521      2.13197298181813
  N   2.92539416977566      2.14452928221946      1.17900823290563
  C   2.95622947591328      0.80688308307310      1.22363623953789
  C   2.30147711972641     -2.16362916013034     -1.03738597538629
  C   1.78920736449359     -2.83075755014742     -1.88883499506301
  H   0.44177548613510     -0.27697955082746     -0.83856823810045
  H   0.53898175086028      1.18216250248058      0.16393788039376
  H   0.48603087950203     -0.42230573217501      0.92492064013709
  H   2.74466274158967      0.59602118910514     -0.86259304899274
  H   4.00313644781680     -1.31811064032936     -0.21021272108877
  H   2.86152293384709     -2.97260328240172      1.25623075379522
  H   3.13993366158998     -1.74370450867768      3.33378636915323
  H   5.65282978351983     -1.33633087377213      3.00426253904291
  H   4.15637213766926      2.84132901825871      4.23220280841705
  H   1.33428311234760     -3.42337900984848     -2.64636271096738
