30
Coordinates from ORCA-job 21424optt
  C   2.83027585256127      3.03855651925262      0.38990260314230
  C   2.53034128364949      1.54813056376242      0.29255820813228
  C   3.14235603896572      0.75489255014283      1.45659676544128
  C   2.59242864821898     -0.60656876407238      1.51283927684533
  C   2.15256965697001     -1.72013421680363      1.58430050763822
  C   4.65230542747906      0.70568385522153      1.44086276804435
  C   5.38745492261976      0.26026416501532      2.51040856113826
  N   4.88117087317783     -0.16204299109523      3.74704679648945
  C   6.76555608105827      0.34901252821834      2.13166746090634
  C   7.93272753349379      0.04653349597489      2.72819177871382
  F   8.05006829716655     -0.45625260236912      3.95395485728063
  N   9.12683886094667      0.23070187584620      2.11915545040750
  C   9.20839083433757      0.74211737133882      0.84180820929522
  O   10.50300787604458      0.84872356132930      0.44906839742814
  C   8.09888740439419      1.06677831160661      0.14750086302706
  C   6.82060288677660      0.87542904903853      0.75500284360672
  C   5.53016587086060      1.07210998627291      0.35464716504295
  H   2.39952637282726      3.57736189330371     -0.45443174999553
  H   3.90341026288046      3.22963658516157      0.40598020481560
  H   2.40519038738131      3.45485670006289      1.30526706266955
  H   2.90152288537918      1.13539164367346     -0.64823909826109
  H   1.45113626630196      1.38662964411658      0.29853950253893
  H   2.84060402196103      1.24709183004661      2.39143668816329
  H   1.76037295672759     -2.70749199190984      1.63174537231205
  H   4.04538786179285     -0.72643757590304      3.65039141830822
  H   5.55911175613806     -0.64295368423622      4.31881585152752
  H   9.97831364933104     -0.00770982638549      2.60499751903447
  H   10.53537697883968      1.19092279689237     -0.44943965226647
  H   8.19332851741187      1.46417852152748     -0.85468520788711
  H   5.21656973430666      1.44658820496993     -0.60789042353930
