30
Coordinates from ORCA-job 21425optt
  C   3.12377860884891      0.14037571343133     -1.92596953501820
  C   3.24976454952306      0.15064685747349     -0.44384857153190
  N   3.45006378778263      1.19363077380780      0.31197105048669
  C   3.49095305989626      0.73399124970603      1.61116958163842
  C   3.31491044879921     -0.61550277010866      1.61095498056073
  O   3.25209634141335     -1.57353332998837      2.57109064604408
  N   3.17081177666408     -0.99786979488355      0.30580994406790
  C   2.89511602252384     -2.33853347468181     -0.17361118820567
  C   1.41629627579247     -2.59362488538528     -0.34888791681206
  C   0.53596138835733     -2.45322477882171      0.72153506209072
  C   -0.82568335691696     -2.67569781680566      0.58053590392051
  C   -1.74915532203444     -2.54597530109013      1.76861836880632
  O   -3.03490352205315     -2.06883836672382      1.43005204222949
  C   -1.32469658586102     -3.04517049116051     -0.66732596560790
  C   -0.47512826769597     -3.18290389569505     -1.75141709050797
  C   0.87714147257116     -2.95393534530105     -1.57135849643150
  F   1.69044255506483     -3.07628942541196     -2.63734826302226
  H   3.16831535911875      1.16828455242042     -2.27615016055304
  H   2.17888137181820     -0.30399434239860     -2.24651933295438
  H   3.93225933007862     -0.42378638822399     -2.39660834210058
  H   3.64466800778601      1.39080327819960      2.45103288726853
  H   3.57818174388741     -1.20771376664500      3.39879089712162
  H   3.30949828064404     -3.03678082595192      0.55374548866011
  H   3.41938056776644     -2.48183111582365     -1.11609356188617
  H   0.93738498095782     -2.15466719758893      1.68492423751127
  H   -1.27826573623134     -1.91289148682924      2.52754005846366
  H   -1.91273338110697     -3.52667176480105      2.21974527208163
  H   -2.94619542776587     -1.19437939009983      1.03781426723782
  H   -2.38707496165933     -3.21632051806795     -0.78378171708491
  H   -0.83706936796938     -3.46259595255090     -2.73141054647294
