32
Coordinates from ORCA-job 21423optt
  C   4.27247204680835     -0.09502845397228     -2.60285422369380
  C   4.35988872297061     -0.09077552240226     -1.08720905152603
  O   3.07733072648382      0.09808884013481     -0.50218801270007
  C   5.02242110401965     -1.35074768583770     -0.54642344296608
  C   5.15856636943032     -1.32406790399426      0.97353925840436
  N   5.87245541946241     -2.47281815159088      1.49101121638106
  C   7.23435082667825     -2.55403592845327      1.47450736895190
  N   8.06658367592068     -1.74490399645035      0.94937473737226
  C   7.80357994561322     -3.80628005489650      2.09575266370729
  O   7.05023077083021     -4.11508929893722      3.27399963825373
  C   7.41231360689530     -5.19433547603954      3.96999602612728
  N   8.34884298621339     -6.00009368560721      3.49150034360972
  C   8.65489106132665     -7.05281131949706      4.24113998442907
  N   8.13142323553204     -7.37139135202217      5.41559583196742
  C   7.21239955715579     -6.53985219084295      5.85544215713796
  F   6.68817678230198     -6.82426851626944      7.03853247671909
  C   6.77575776096611     -5.41909717500174      5.18955727112829
  H   3.78716318578705      0.81383869706224     -2.95703249036234
  H   3.69093340399582     -0.95623899019728     -2.94465872484212
  H   5.26400065110141     -0.16205154480930     -3.05191062788625
  H   4.93677518044978      0.77996435135881     -0.76208619917043
  H   2.47175011614116     -0.55033542054502     -0.87757146432756
  H   6.00725329489256     -1.47043929131951     -1.00611476176923
  H   4.43205221040414     -2.22554441018082     -0.83983926774800
  H   4.16990611964089     -1.30075211309373      1.42796346581086
  H   5.66714107669536     -0.40360438432870      1.28420953091310
  H   5.39651124155982     -3.08409686649605      2.13244528541979
  H   7.61030682940044     -0.95610616527373      0.49773417454182
  H   8.84764822989553     -3.63500560928005      2.34438340051510
  H   7.73755378961024     -4.63861493754404      1.39315073858202
  H   9.41376036954172     -7.72091975138979      3.85071220976623
  H   6.02155970227503     -4.75758569228285      5.58534048725348
