30
Coordinates from ORCA-job 21436optt
  C   0.93883387920810      0.93193389496053      1.90964559593769
  C   2.45081957201506      0.96859738185426      1.72195358846026
  C   3.02535387239752     -0.42142733469431      1.47352629248828
  C   4.55319810166024     -0.47224380162364      1.35196068080679
  C   5.28247627901865     -0.30432876497479      2.70295563495937
  C   6.59430800397058      0.44378099792381      2.40299948652442
  C   6.27361885083311      1.12469975376609      1.09827582919775
  C   5.17663671272030      0.61843962781503      0.50914086464067
  C   4.74219137979923      0.97703035846461     -0.83456807980001
  N   3.91282359751124      0.23716102598252     -1.45195586422232
  C   3.48757024800883      0.47553257224087     -2.81759377120559
  C   5.38423477446255      2.22734586365847     -1.33438775042524
  F   4.77077767845769      2.79400140607016     -2.37822130823799
  N   6.40628372882731      2.82545409862252     -0.90895055631605
  S   7.25322810887147      2.37058836105755      0.43164613602429
  H   0.52842219924577      1.93163118524305      2.05510462751412
  H   0.66586297147656      0.32741622554541      2.77681621361419
  H   0.45349907094873      0.49456591304676      1.03511332266261
  H   2.91661255230288      1.42743071150856      2.59880638966840
  H   2.69405022096467      1.61264484284114      0.87261397975670
  H   2.58434130872964     -0.82243714623860      0.56042270731680
  H   2.73268172751690     -1.08737757614117      2.29277280105389
  H   4.81980218160088     -1.43407225619356      0.89940339247391
  H   5.44992969953379     -1.25791775334036      3.20134250071169
  H   4.66618133541432      0.30839171728367      3.36273588207484
  H   7.43194200710152     -0.24399689187495      2.25735526126790
  H   6.88038479684748      1.14388414536404      3.18886719731885
  H   2.98058225448783     -0.41939805470401     -3.17250268682192
  H   4.31954046398491      0.69586924873485     -3.49001331249448
  H   2.78481242208214      1.30980024780148     -2.87226505494981
