33
Coordinates from ORCA-job 21433optt
  C   1.01447828098523      0.09976986334658      0.16721026631379
  C   2.51932765457686     -0.00720828975895      0.00501331980264
  N   3.05574532716438      1.18362200962876     -0.63723462616562
  C   4.50620405271887      1.18756485931390     -0.71417920919797
  C   5.00205970316541      2.42786266421341     -1.43636843822490
  N   6.44514538587406      2.45624768836840     -1.44643727009527
  C   7.02141977205492      3.39870158692182     -2.07884093505130
  N   6.36113690602653      4.42291464026792     -2.76606959335979
  C   6.97158097389925      5.41917227299657     -3.48061272577012
  N   6.10379668042543      6.34730738663149     -4.03745640483650
  C   8.32331583167923      5.47307705305742     -3.55453709660920
  C   9.08930385184288      4.49668118894232     -2.84181968549580
  C   10.60115149352120      4.53696512366981     -2.82963723962084
  C   11.16051282492796      5.20264050553417     -4.00348733765746
  N   11.58511676527829      5.74303523519248     -4.91960690317069
  C   8.46459362817204      3.52899657053472     -2.14600373190486
  F   9.16817786668316      2.62807414384040     -1.45729587672436
  H   0.60582583388326     -0.80195984682550      0.62321385881116
  H   0.53788945408855      0.24908672849561     -0.80173210795627
  H   0.75340205941063      0.94507532279894      0.80810501763657
  H   2.76703529411617     -0.86515393151577     -0.62555167913020
  H   2.98812998794694     -0.19059611126378      0.98426881301494
  H   2.74115532290630      2.00329852475303     -0.12679543576789
  H   4.82635577474296      0.30547677707168     -1.27403497112205
  H   4.99356983147465      1.13310741275683      0.26970951722240
  H   4.59560379826925      3.31805682646488     -0.92536924588652
  H   4.58090398884027      2.42682201156030     -2.45311476567593
  H   5.36057565229259      4.47484134676193     -2.64844523648744
  H   5.30362849049253      5.94848050293275     -4.50976258710282
  H   6.56882827416502      7.02766606644318     -4.61941513780369
  H   8.81188497132392      6.22189706371956     -4.15996196353021
  H   11.00412050126996      3.52589965681620     -2.77154196871839
  H   10.95302376578119      5.06957714632883     -1.94220861973537
