33
Coordinates from ORCA-job 21442optt
  C   2.82698758848396      0.31829643131879      1.34066591238642
  C   2.77568643329110      0.07415858821345     -0.16432315800510
  C   1.33846316019660     -0.08015151553372     -0.64505764880482
  C   3.51090196751868      1.18697940490572     -0.95149652137030
  N   2.94036538576468      2.49092549478978     -0.69297315948025
  C   2.08283919534143      3.06933524488915     -1.43676870073991
  N   1.59442631270920      4.30182854726053     -0.99828783915287
  C   0.67524948400621      5.08807071174684     -1.61680782008246
  C   0.36814883660294      6.38613682050956     -0.92109919624509
  O   0.31510676301908      6.24303187770072      0.48343875673855
  C   0.13031123999267      4.69935383578948     -2.79199727092938
  C   0.56410975626757      3.45849916157293     -3.34718506527460
  C   1.47510072898974      2.69890649491047     -2.71295892356173
  F   1.85871488954078      1.54085370274315     -3.26232206276211
  C   4.98667350334705      1.14392123065927     -0.54862092982688
  N   5.46764528127351      2.24640486010775      0.06420664112132
  O   5.65678541727583      0.15571374660148     -0.77251881157340
  H   2.34242929904177     -0.50216373032607      1.87172668681997
  H   2.31052064242361      1.24445463624124      1.59911919316664
  H   3.85527541236957      0.38956771492276      1.69872440399358
  H   3.32587243768090     -0.84206763776884     -0.38924261064036
  H   0.77131359152737      0.83966812880662     -0.47801110252174
  H   0.83827570074999     -0.87786966893668     -0.09382662416284
  H   1.29480338249523     -0.32135553053935     -1.70734031601403
  H   3.50782993335630      0.90486572855156     -2.00451469368653
  H   1.93401524056115      4.59072984097552     -0.08928737174119
  H   -0.55619835948289      6.80120494636143     -1.32906201900048
  H   1.17141515339137      7.10072481786102     -1.11138219175486
  H   -0.45159345534988      5.71039948577535      0.71937731884088
  H   -0.60465919196849      5.31210884251348     -3.29049705380118
  H   0.16796697064683      3.09915516607477     -4.28841396577800
  H   4.84432719543715      3.01275173249599      0.25302645921875
  H   6.42189010349892      2.24856088880580      0.37970968462403
