28
Coordinates from ORCA-job 21459optt
  C   0.93321122522754     -0.17957777748907      0.13555131321798
  C   2.42250791147459     -0.04035896022219      0.09828740656860
  C   3.08898547404667      1.12683107225527      0.04233551558277
  C   2.42302076818563      2.47011075319353     -0.05780582721766
  O   2.60625403355681      3.27207207588761      1.09651216876353
  N   4.50588179490093      1.13107447736488      0.05179557766668
  C   5.20349011047447      2.32056302325208      0.06887429256030
  C   6.54394023717070      2.32875063907339      0.03305677765731
  F   7.22188172203360      3.47587629769233      0.05096471347711
  C   7.25889972891942      1.10099392034193     -0.00085757940669
  F   8.58520672772914      1.17496136650549     -0.02952214943426
  C   6.61650801347580     -0.08473275999143      0.00958619444214
  C   7.33121596053608     -1.39580246983801     -0.01260836670239
  C   5.16671724761591     -0.09563908430569      0.04649243341685
  N   4.55993614258866     -1.23798309382607      0.06464823926537
  C   3.17919371917772     -1.30859586049411      0.10931486246280
  N   2.53305059752269     -2.41040223163373      0.14424178434322
  H   0.40862196332593      0.75019242425204      0.33421338400075
  H   0.67794274675450     -0.91008775537519      0.90229875719309
  H   0.57689751675272     -0.60339194362765     -0.80522495574094
  H   1.36827211013458      2.33521933798376     -0.28178734715520
  H   2.84956618114802      3.03520135754259     -0.88848095583086
  H   2.23646298346371      2.81256440466485      1.85733772714991
  H   4.64942004253069      3.23926533311419      0.15607790976989
  H   8.40777659595377     -1.25063412016931     -0.04152299830765
  H   7.01419033057352     -1.97645677844018     -0.87936020106303
  H   7.06078727528417     -1.98003091948230      0.86723197669513
  H   3.19816083944197     -3.18198272822903      0.13434934662524
