35
Coordinates from ORCA-job 21462optt
  C   3.03146784890612      2.11708989197559      0.08687575066326
  C   2.60211383199969      0.66097565057035      0.19557578186659
  C   3.12227223556249     -0.01202476072714      1.46121005886351
  C   2.62461228017794     -1.44836267435738      1.58135717031396
  N   4.57940037023749     -0.01508184186329      1.42508860602942
  C   5.21627135324006      0.09658237914100      2.50428379706601
  O   4.63911583155842      0.14249698367061      3.74256036540889
  C   4.72218206187831      1.41875765575676      4.37296701072627
  N   6.59519389582232      0.23366467946685      2.52601429934780
  C   7.28349667856294      0.53925400069705      1.28090846061623
  C   7.33926207170063     -0.16499472280432      3.64160401210245
  N   8.35421615707748      0.59806090638102      4.02076974341076
  C   9.07196904663211      0.24487732659525      5.08339977604457
  C   8.79940527204873     -0.87900225595803      5.84501243508430
  C   7.75642501382422     -1.70409972978099      5.44636571660740
  C   7.04341116007188     -1.34856110594117      4.32638992352998
  F   6.09315714216557     -2.16090563194458      3.86074882289347
  H   2.64718055213427      2.58110617707402     -0.82190053031475
  H   4.11961231798944      2.19184542494263      0.07356162004718
  H   2.66430834930151      2.69504737978441      0.93884019145893
  H   2.96958080477543      0.09660753055286     -0.66596284726081
  H   1.51108426139154      0.58996259092355      0.18840640700707
  H   2.75967872200214      0.55262592302240      2.32941152044313
  H   2.99218524106701     -2.03929540093361      0.74061643302203
  H   1.53368839125571     -1.47954117689061      1.58012364401602
  H   2.98877506126648     -1.89865405196638      2.50530044000404
  H   5.75694348854838      1.68620574098079      4.59665786519469
  H   4.15428706095636      1.34306345369788      5.29647405439308
  H   4.27985240306713      2.18481984913597      3.73087729190772
  H   6.76237451557645      1.34757085413837      0.77248233258374
  H   7.29506831592296     -0.32949414363934      0.61966228477617
  H   8.29739412134233      0.84654772544371      1.52095803795657
  H   9.89644640731439      0.89957211555590      5.34019749286226
  H   9.39653862800804     -1.11554433621755      6.71416515629126
  H   7.50702910661390     -2.61917240648260      5.96699687503671
