30
Coordinates from ORCA-job 21465optt
  C   1.04394034289090     -0.10600349135276     -0.30449222499640
  C   2.54049957766088     -0.09250848356794     -0.19190177679529
  C   3.20913683548675      1.07793538964311      0.12962978157013
  F   2.45176973339254      2.18192277159945      0.33522041018709
  C   4.58601801699100      1.19006865803508      0.26171866164793
  C   5.16069159995476      2.52506450807704      0.65881399316948
  C   5.34456009003253      0.03602548452585      0.03435216146681
  C   4.70395978226988     -1.18110504294642     -0.25824290849373
  C   3.31699993521099     -1.22358720519475     -0.37429984269938
  N   5.39793697330693     -2.38770798750995     -0.40953434286974
  C   6.60330828681761     -2.42585211540159      0.02159936809761
  N   7.31359906377642     -3.60723234868275      0.00262650813221
  N   7.26271959663322     -1.32920260096037      0.52623037925466
  C   6.83704046802288     -0.05863440443809     -0.02364465857319
  C   7.85102538275963      1.02992229797572      0.05494515659353
  C   7.54980178204977      0.39955789196998     -1.27711446670238
  H   0.70244058676554      0.59527812769073     -1.06695892726659
  H   0.57870444664027      0.19320729875110      0.63587646397182
  H   0.69209754943732     -1.10234161171130     -0.56567423185305
  H   4.36671991278129      3.19178104628446      0.98323636923419
  H   5.67378773383423      3.00930574276804     -0.17504930627402
  H   5.86897753386725      2.41443088464343      1.47813460934297
  H   2.85556559676093     -2.17539169233471     -0.60584086562215
  H   6.71869146657590     -4.41623203785571     -0.09346422493418
  H   8.03118045492095     -3.70920803231591      0.70316086421886
  H   8.26016333259709     -1.42753804155910      0.64286798878788
  H   8.78770547937103      0.76717053534363      0.53091534518668
  H   7.55215085182221      2.04965588260725      0.22024162439267
  H   8.27812227723348     -0.27359381380879     -1.70916534839173
  H   6.97068531013569      0.97881238972528     -1.98318655978268
