31
Coordinates from ORCA-job 21471optt
  C   1.06195961127528      0.13927915569843     -0.42188130454822
  C   2.57266507703816      0.16823332792834     -0.23735425663468
  C   3.06737539988465      1.47550256423169      0.40351820390294
  N   2.56505149923128      1.68127954347227      1.76113989948342
  C   4.57937991081404      1.51776307177318      0.37919133870947
  C   5.32829297417539      1.29004758212317      1.49909696394296
  C   6.72700109456090      1.30139183277452      1.43595724145140
  F   7.37543575743519      1.04727685048733      2.58626984014152
  C   7.45189529501116      1.56216444158471      0.30560884308413
  C   8.95380914294814      1.59698976483908      0.36659534647375
  C   6.68064704890707      1.79898597628999     -0.86658352581587
  C   5.26440273212584      1.77834131766604     -0.83934194475797
  N   4.51904937444746      2.01904438563457     -1.95784111786177
  C   5.16330651174791      2.25879645784469     -3.05824578700599
  N   6.50452150842752      2.28825728892658     -3.21725817372584
  C   7.22863834637110      2.06631782332549     -2.15742601222933
  O   8.55841701451746      2.08755140595673     -2.31136162122959
  H   0.74130728543778     -0.79232996606975     -0.88834121304095
  H   0.73963464661674      0.96294299159083     -1.06247561252756
  H   0.53806852922835      0.22638220815212      0.53143976918857
  H   3.06357105065842      0.03887618180965     -1.20235444777397
  H   2.89545352332869     -0.66131500612140      0.40197845953775
  H   2.71263669859736      2.30654741505225     -0.20961216443680
  H   2.53229744300433      0.80278720347971      2.26877385717540
  H   1.61833377106243      2.03620452904911      1.73556901657127
  H   4.85910395010534      1.12853132518775      2.46046375234523
  H   9.28482049224200      1.42974750245560      1.38764412531004
  H   9.33374132998016      2.55860397845682      0.02553338164869
  H   9.39224029794764      0.83450483554641     -0.27541841032810
  H   4.58155125192048      2.45762814709373     -3.95143388057585
  H   8.72039143095165      2.27766586376033     -3.24685056647406
