32
Coordinates from ORCA-job 21470optt
  C   4.75337601856204     -1.21143648637323      2.37721900895144
  C   3.66222992522956     -0.74330562408427      1.45436590306323
  O   2.58971662066621     -0.36803072968995      1.85134483971162
  C   3.92615465568764     -0.78576409125735     -0.04768435590466
  N   5.33370400265479     -0.73739899050676     -0.41626744112128
  C   5.76860887049143     -1.49720200706753     -1.51686387466303
  C   6.36636056987454     -0.87530885927996     -2.61418434822690
  C   6.85279232044913     -1.64089807249498     -3.65787619427096
  F   7.43190181161097     -1.00651542052225     -4.68887725141959
  C   6.76244203408566     -3.01945002392131     -3.68601993712488
  C   6.15647716156171     -3.62139319854187     -2.59386691934035
  C   5.67027394752766     -2.88892689229367     -1.52078391128652
  C   5.23631946583706     -3.84075041970451     -0.42770276131582
  N   5.23061426311222     -5.17049822237836     -1.06342718006550
  C   6.05118587031884     -5.09420190170470     -2.28743984662562
  C   7.42249991300559     -5.70546255782097     -1.99990536768752
  O   7.29002373738889     -7.03681831753093     -1.57254513602476
  H   4.36452376373380     -1.28397744439023      3.38900099725857
  H   5.58771479739453     -0.50874153982649      2.34352495840864
  H   5.15034571784062     -2.16958384625787      2.03826940698804
  H   3.34054689396308      0.01560291296612     -0.50685492496395
  H   3.49538630553935     -1.72065507116663     -0.41069761736118
  H   5.66171380623020      0.21595026879792     -0.48214500724525
  H   6.44947415285739      0.20265663645272     -2.66960496420889
  H   7.16315091372487     -3.57759807846191     -4.52136286195877
  H   4.25661516537896     -3.63751816901144      0.00521582953981
  H   5.95815376147511     -3.80956616795230      0.39542716514793
  H   4.28164320306332     -5.41644548303345     -1.30852601820258
  H   5.57939579149996     -5.66954176582181     -3.08642968092474
  H   7.93231846451671     -5.09246096134915     -1.24469425674030
  H   8.03563804266065     -5.70588733793898     -2.90234462473900
  H   6.61269803205739     -7.02687213783382     -0.88326362764723
