27
Coordinates from ORCA-job 21507optt
  C   1.10120205637504      0.22927008370650      0.46381227580831
  C   2.55575971224468      0.06704456422520      0.12886717196766
  C   3.19331274629350     -1.12839822475506     -0.01039145441478
  N   4.62254065445652     -1.14724478048296     -0.07051062297065
  C   5.35612390313692     -0.00287102628571     -0.46228820130362
  O   6.49379308430919     -0.04165921180830     -0.84971473488007
  N   4.64436606965838      1.15292109036024     -0.36244087052291
  C   3.30134997842363      1.30696691958879      0.00538875425195
  N   2.75473481070655      2.44865795988516      0.16493131667399
  C   5.28944647658738     -2.31028743343670      0.25373483357330
  F   6.57299173418711     -2.18411362769661      0.51118399233095
  C   4.67909408839583     -3.48895382114237      0.38444329570987
  C   3.27578911618493     -3.55850534203212      0.07724168282494
  N   2.72802347978573     -4.81194925175864     -0.04914647082773
  C   2.55135260908079     -2.42391961990361     -0.14560095535294
  C   1.14489505625742     -2.55650714070964     -0.66700763072236
  H   0.69180316123917     -0.66382586716062      0.92620773926179
  H   0.49427223269020      0.49513618299079     -0.40469114103111
  H   1.01157234584004      1.05838100472636      1.16437334295597
  H   5.16804256872384      1.97288078688304     -0.63289309290838
  H   3.41300898209056      3.21306055870530      0.03218743697514
  H   5.25208520629668     -4.35034685182022      0.69208422708100
  H   3.26030101810390     -5.58684514633621      0.30746528801120
  H   1.73163700227019     -4.90561839403184      0.05151049192302
  H   1.10334302874638     -3.38069791654852     -1.38366177037622
  H   0.83460665734791     -1.65799664384004     -1.19245500187831
  H   0.40355222056748     -2.75657885132219      0.11237009783999
