28
Coordinates from ORCA-job 21501optt
  C   1.00965164719029     -0.44145361818502      0.08332517324000
  C   2.51585815726129     -0.19616399153220     -0.01485707762089
  C   2.86140520537771      0.75504920471653     -1.11418077906682
  C   3.45532327246920      0.48793802106472     -2.29857032324290
  O   3.59749590676701      1.60871346609466     -3.08105944414810
  C   3.07490326262988      2.64231273035014     -2.37395933911455
  C   2.59986726375391      2.17588705287542     -1.14782936365958
  C   2.04536534231877      3.11091212358100     -0.28064221440363
  F   1.58793309238455      2.70326981505967      0.91302865462009
  C   1.96851639088003      4.43812727109352     -0.63095829286847
  C   2.45395794669907      4.85446981268930     -1.87744839293061
  C   3.01816750383114      3.96606501227638     -2.77623196690598
  C   3.99646665743021     -0.76397485260422     -2.89335584871404
  C   3.45321470676583     -0.97177048465590     -4.30008462699134
  O   4.14661906640178     -1.28446228444546     -5.22282957384233
  C   5.52202177302590     -0.73948628250903     -2.91599748877830
  O   6.19148395700224     -1.44938730980346     -2.22588966770759
  H   0.78326523776936     -1.12715174592638      0.89954957695177
  H   0.62822922804692     -0.87176317872892     -0.84374170551718
  H   0.47847757752869      0.49221199955073      0.26731226600520
  H   3.04167457523122     -1.13918346553037     -0.17341489929666
  H   2.88207738038426      0.20986098356020      0.93010507978410
  H   1.53717538137151      5.14394397484879      0.06501907570002
  H   2.38834131639048      5.90202874783652     -2.13847852439862
  H   3.39947966635733      4.28164937345860     -3.73660277405497
  H   3.67828580224850     -1.61025382603988     -2.27883408922490
  H   2.36405237831778     -0.81974631556762     -4.41500772121009
  H   5.96769030416509      0.00035776647225     -3.60236571260360
