28
Coordinates from ORCA-job 21502optt
  C   1.11900259765847      0.03829638458939      0.01115401215243
  C   2.60743131332833      0.00009517269548     -0.02830735603394
  C   3.45026186421508      1.04434802680312     -0.07556232194673
  C   4.80308827654059      0.51292715118882     -0.07459549012200
  C   4.81511552671661     -0.82725136993375     -0.02747153461197
  C   6.06167796177139     -1.55558913824412     -0.06102317031772
  C   7.23697066037146     -0.68915237392816     -0.13094959978220
  C   7.06774457644288      0.63265939452568     -0.16802897560203
  F   8.05981262164756      1.49189423848424     -0.24806014045456
  O   5.90959159555947      1.30179357915337     -0.13676464664373
  N   6.06244970987997     -2.83691444330042     -0.03180815296470
  O   7.36303227038000     -3.34110941997638     -0.07443522921751
  C   3.39127925635565     -1.30553041238203     -0.02727086518462
  C   3.05395719946315     -2.17179557498201      1.18908888786421
  C   3.09158173781163     -2.10145823514242     -1.31284113732468
  O   3.41104574052689     -1.40872314462681     -2.49597642549102
  H   0.75343124332168      1.06231745940745     -0.04589450074484
  H   0.74223634814952     -0.40975730440858      0.93393154088594
  H   0.68545185063313     -0.52901429932952     -0.81700849811359
  H   3.19682836184494      2.09476953728598     -0.08847252863195
  H   8.23426533689184     -1.09487848424540     -0.16664580419263
  H   7.23008413733233     -4.29234763675745     -0.05896797440898
  H   3.21073022204291     -1.61260422923157      2.11180570236432
  H   3.69548235695724     -3.05234803571297      1.20103437167595
  H   2.01164837372601     -2.49433899936305      1.15084400040962
  H   2.03431063923603     -2.39426651992761     -1.29831541978060
  H   3.70064714998623     -3.00521037906682     -1.30620228052880
  H   3.05484107120894     -0.51481094357444     -2.44625646325369
