24
Coordinates from ORCA-job 21516optt
  C   1.74759272432164     -1.13049218635855     -0.55188321368393
  C   2.36978570968932      0.02228331760781      0.20603062855828
  O   2.25344169374720      1.15461670105361     -0.18695320912679
  C   3.13360553235323     -0.29720344939451      1.45276581309417
  C   3.78054232798214      0.65833480447792      2.19770836734909
  F   3.71157610164450      1.92275530623584      1.81251847845831
  C   4.54407316010686      0.44167902032247      3.36419771249400
  C   5.17295021587937      1.56413646584371      3.99033499465127
  N   5.70176219160478      2.43152226093162      4.52600914212710
  C   4.70962310960060     -0.81965365738136      3.91915307714270
  C   4.09300371857460     -2.01343836503332      3.30288458446504
  S   3.16664667309274     -1.96363541612994      1.89754046717986
  N   4.34593171786633     -3.11852115063627      3.95791167396568
  C   5.12617637623283     -2.70285210407565      5.01024506436161
  N   5.58230085421175     -3.57381462727304      5.90565259044491
  C   5.37817827250987     -1.31569463514960      5.03157137942198
  N   6.15300812679041     -0.69701839262729      6.04296368077997
  H   1.25556341766353     -0.72331615133800     -1.43027482304426
  H   1.01684369089078     -1.65617996254114      0.06566139462694
  H   2.50574167890270     -1.85329496147022     -0.85833791274775
  H   5.34271354906936     -4.54686765314359      5.83352508191879
  H   6.13772956842511     -3.23041524559507      6.67241789187221
  H   5.62873508383978     -0.00167246062674      6.56057974657566
  H   6.97747450500050     -0.23825745769868      5.67377738911510
