33
Coordinates from ORCA-job 21519optt
  C   3.23852470913270     -0.33728034863662      1.65347329039400
  C   2.53594014258627      0.00688523925329      0.34051388067338
  C   1.03614173125631     -0.26121486057875      0.53273915350815
  N   2.79416758309574      1.42258389172005      0.04125793137035
  C   3.06091167689700     -0.89250866770219     -0.81685668201758
  C   2.53280150329890     -0.50105943311248     -2.22005450469886
  C   3.37304995625710      0.52529912281367     -2.99518038678584
  C   2.67154965762570      0.96663183894863     -4.19769804166770
  C   2.06733624812181      1.30984463271413     -5.17377092866387
  C   4.56553145302479     -1.07612317211465     -0.86385889474838
  C   5.47732449078812     -0.09539335807074     -0.70186144537804
  C   6.88612365567680     -0.29815985647621     -0.81380427300336
  C   7.47400892739445     -1.47020356654378     -1.11362556979935
  F   8.80292958092446     -1.53946280517784     -1.18823371910832
  C   6.80082095781797     -2.73417546800557     -1.37996440230299
  O   7.34694418324749     -3.76847179986182     -1.66031629737781
  S   5.02080062824293     -2.70212559683008     -1.24975506824156
  H   2.74271004544162      0.17402619427572      2.48128595081023
  H   4.28422612350264     -0.03948649257626      1.64293603657474
  H   3.18699082892018     -1.41066243822880      1.84466463307039
  H   0.66233110808535      0.36081478661243      1.34789720110979
  H   0.84842163643988     -1.30527412282297      0.79102441668895
  H   0.45632185760866     -0.02084935164480     -0.35849280421573
  H   2.60929924056654      1.98354093433649      0.86667885368196
  H   2.15739662571650      1.75312649324886     -0.67790265822979
  H   2.63584918837568     -1.87817655398426     -0.60327030973263
  H   1.51218482607826     -0.12695609283247     -2.13373854700504
  H   2.46927840028482     -1.40325281608826     -2.83127260337752
  H   4.32848184120692      0.08236057803484     -3.28267055818014
  H   3.60959435145571      1.38893132359960     -2.37119247110226
  H   1.53961517431806      1.61672885877379     -6.04483747109766
  H   5.11709376929234      0.89833038651340     -0.47005376674435
  H   7.54729789731820      0.54473252044365     -0.65105994440313
