30
Coordinates from ORCA-job 21518optt
  C   1.18869824066263     -0.26305639833094      0.02536047351600
  C   2.68975146983739     -0.19278012007317      0.12578175217716
  O   3.07774229882107      0.89678616596421      0.95010816321250
  C   4.44786496206578      0.68356751510593      1.24337598888881
  C   4.60768504390573     -0.82033282294283      1.47811257393528
  C   3.35550720992355     -1.41093599297270      0.79816358431675
  N   3.61058398690471     -2.49932143561728     -0.14522031008691
  C   4.58127040627998     -2.39175177367935     -1.09834828293474
  C   4.75484295782958     -3.32032223505242     -2.06645824993416
  C   3.90489907952784     -4.48328855989419     -2.16246517649377
  O   3.99078495105723     -5.35431283747293     -3.02314147840260
  C   2.87097004217290     -4.57219494697646     -1.12855768884159
  N   2.08065253539839     -5.70368271549796     -1.13334687651807
  C   2.78135076782235     -3.59029753475246     -0.20777396278401
  F   1.83683812066091     -3.64218106492734      0.74044370441778
  C   5.26431385754337      1.20496665630861      0.06525246615692
  O   6.19802017187063      0.63668087976645     -0.42519156822328
  H   0.79248903234178      0.63741657565873     -0.44172022232591
  H   0.75153071179990     -0.36646238980787      1.01907590859568
  H   0.89887980939940     -1.12439455960582     -0.57865240953550
  H   3.13290291331296     -0.07058203420330     -0.87470956493517
  H   4.70231110539387      1.29181564203781      2.11445750217331
  H   4.60564595124084     -1.04923350750478      2.54071624171960
  H   5.53908780877777     -1.18932028755488      1.05382866487352
  H   2.68080364863657     -1.79807794021468      1.55569524859773
  H   5.20610882242719     -1.51131231399677     -1.03163119157283
  H   5.53884509796729     -3.19613905938553     -2.79883302185343
  H   2.16175611133273     -6.19375911768087     -2.01580155139004
  H   1.13952035753538     -5.60481535731351     -0.78861979167690
  H   4.90234252755022      2.17332157061635     -0.32990092507215
