30
Coordinates from ORCA-job 21524optt
  C   2.63192685975994     -5.10790482871091      4.79038924387058
  C   3.07257135323164     -5.71805788937189      3.48577751715885
  C   3.76990255393306     -4.99889304429586      2.50402146358715
  C   4.08489859413022     -3.52483250049761      2.73230553350701
  N   5.52253032610295     -3.27588522501776      2.75538255966352
  C   6.04016896094376     -3.24820859843400      1.59487242313787
  N   7.39280770575534     -3.14270259345702      1.41386678708646
  C   5.18910398534508     -3.42133799745977      0.35656391653563
  C   4.89410255354737     -4.91456412299413      0.17329411335532
  C   4.16686782984682     -5.61390318539283      1.31027671604677
  C   3.86967544201088     -6.95944984061840      1.11636851417935
  C   3.18152320179056     -7.69051788531944      2.06507809613897
  C   2.79323310231387     -7.04977494630487      3.22245600369383
  F   2.10793627531723     -7.76746881093705      4.13336384539342
  N   3.95362749927384     -2.65837125647838      0.46446919139464
  C   3.41815961725593     -2.74327797075201      1.61370625324171
  N   2.19010178374450     -2.20384235888870      1.88261920559811
  H   1.87758924365175     -4.33449695018340      4.63013730468382
  H   3.47465861965462     -4.65154492015188      5.31115098039092
  H   2.20026067758305     -5.86426978466807      5.43998327236301
  H   3.68011857684513     -3.20689903448846      3.68969029817502
  H   7.92692832198098     -2.92024488986506      2.23980706127403
  H   7.72113154304220     -2.73441634061866      0.55545996581420
  H   5.73118377187200     -3.07385944016261     -0.52465487065835
  H   5.83569777640349     -5.43878388939276     -0.01317477487484
  H   4.28710464189848     -5.01410209063725     -0.73036443744703
  H   4.17923000987765     -7.43896071923865      0.19483982666858
  H   2.93907718072804     -8.73503621084921      1.92611198940549
  H   1.81225849462602     -1.59942759333415      1.16947863374212
  H   1.98362349753355     -1.94796508147915      2.83272336687381
