27
Coordinates from ORCA-job 21520optt
  C   0.72019202600201      0.25283701848469      0.13188931066838
  C   2.22250626797449      0.05629894000445     -0.07856752223995
  N   2.58057990436782     -1.33515921038131     -0.29599803248833
  C   2.73988909729793     -2.22117391450509      0.71120513027728
  O   2.81812392243615     -3.41906894661941      0.55843127201825
  C   2.81685634741979     -1.62109321455442      2.10328892725753
  N   3.23827107605666     -0.22029620889552      2.13066337172738
  C   2.98844757004378      0.62287093234232      1.09409527220207
  N   3.30521000068922      1.86752302871705      1.04571901597665
  C   3.96135184495670      2.47353841485509      2.11996711513860
  O   4.26213082570703      3.64479528540695      2.12677055144786
  C   4.24816312744592      1.58309372178737      3.23452271540854
  F   4.85020996614382      2.12317080098288      4.30038094119729
  C   3.88341718294369      0.27906431858172      3.26224603245187
  N   3.98334613500235     -0.59943270388156      4.31715832312083
  C   4.96555353494008     -0.51809410443853      5.13666914187044
  N   5.02779583734140     -1.30029119159261      6.22259322883503
  H   0.17144497399828     -0.11527385724236     -0.73487771385038
  H   0.50053305091826      1.31076905240313      0.27011576545315
  H   0.37997035483681     -0.29692713395132      1.01169757159831
  H   2.54650036459002      0.63188227753062     -0.94280201181179
  H   2.46198199637179     -1.73288889244760     -1.21637719821668
  H   3.52550469029926     -2.21585992700221      2.66861312186629
  H   1.84124013781052     -1.73768858542012      2.58356435375653
  H   5.80791176831030      0.15937476445146      5.00945119457879
  H   4.27111092660633     -1.93451741622878      6.42031955430464
  H   5.79675706948954     -1.23945324838689      6.86326056745137
