32
Coordinates from ORCA-job 21523optt
  C   0.90197962322481      0.09054230861100      0.02651638401834
  C   2.42110491686358     -0.01007150942650      0.09248408948484
  C   2.99512403440088     -1.02622740558649     -0.89203183379561
  N   2.45782355824980     -0.71398095330397     -2.24337942561281
  C   3.14627920917366     -1.21611442590732     -3.35911570087985
  C   4.09564843455425     -0.55649022334573     -4.05661798656574
  O   4.55542284518025      0.68654772423698     -3.91246918862601
  C   3.71149131200655      1.68638162622725     -3.34482479758433
  C   4.76397795368712     -1.31661097109524     -5.09933197996542
  F   5.73800649073445     -0.70147341098066     -5.74476922679655
  N   4.51470874578429     -2.50406695678749     -5.45763500964763
  O   3.49304427127025     -3.14366630360032     -4.80780576666094
  C   2.81033387493684     -2.58337036334728     -3.76963132841184
  O   1.95104925763841     -3.23258654371446     -3.23851907158049
  C   4.52510709259543     -1.08392875430801     -0.89355688575147
  C   5.13226153579447     -1.02391623272005      0.49891685653196
  O   4.97304106586444     -2.25151356972690     -1.57133195883058
  H   0.52314685475588      0.74598795202907      0.81009227971760
  H   0.44202629693594     -0.89142547957782      0.16195510729229
  H   0.57134916644370      0.49344258799647     -0.93058279937455
  H   2.71506736086588     -0.30026281100876      1.10208190241994
  H   2.86839000166934      0.97012888471848     -0.10251526046763
  H   2.65162979541267     -2.02879347555290     -0.59274609907828
  H   1.51544365241029     -1.09027773266348     -2.28005457049727
  H   4.15892452358708      2.63267351034062     -3.63565828999842
  H   3.67114972656583      1.59864027954306     -2.26065350239801
  H   2.70190030241476      1.60037239476248     -3.74380038360466
  H   4.91166712767291     -0.24951200957859     -1.48692489288985
  H   4.70001694871964     -1.79465901354516      1.14353411285583
  H   4.97366531239042     -0.05601013201411      0.97235695810878
  H   6.20416233786101     -1.20010287138887      0.42169209284453
  H   4.73805637033511     -3.02465611928526     -1.04567382425613
