32
Coordinates from ORCA-job 21528optt
  C   2.70249318240138     -1.25483575967575      1.61236726290689
  C   2.42776938679895     -0.44956717695270      0.34951460948365
  C   3.05265630085367     -1.02453441533212     -0.92712243576661
  C   2.35688910936753     -2.33869936634572     -1.34025897141885
  C   2.70771367338782     -0.15529624839331     -2.15216818490154
  O   1.73276752602402      0.53389654665152     -2.21150766893879
  N   4.54010990493378     -1.09832726017104     -0.86224351952775
  C   5.22311910370312      0.10129309608368     -1.12909752458910
  N   4.73305000311260      1.29100529019298     -1.20328367252368
  C   6.63561623288120      0.01268492986057     -1.44517017780455
  O   7.24525734285544      1.15326472679489     -1.80528217683091
  C   7.25742567619919     -1.17748069717232     -1.36325610649361
  F   8.55925406331348     -1.28580898456746     -1.64270718406486
  C   6.59080176566293     -2.34381873859150     -0.89782817527591
  N   7.29335751055040     -3.54889295339303     -0.60961297553499
  C   5.25779251228624     -2.26845654145969     -0.62102404059216
  N   4.60566828469826     -3.37967827121267     -0.10450280250141
  H   2.25288933637844     -0.76127898866720      2.47316719031321
  H   3.77438490046065     -1.33169287834928      1.80793275729153
  H   2.27312023884481     -2.25785826044319      1.56384392607232
  H   2.78654360671655      0.56809084830244      0.50596540377441
  H   1.35460568466900     -0.37042747563487      0.17161946206623
  H   1.35205927530857     -2.07425590562882     -1.67066161057888
  H   2.26472183457424     -3.05049522713042     -0.52923290604200
  H   2.88285516073652     -2.82845552810598     -2.15865404131581
  H   3.37589784925295     -0.31388455602433     -3.01951965280012
  H   3.76838747785805      1.42318644680454     -0.94250467475324
  H   6.54124337042578      1.82995504485125     -1.76236856389279
  H   8.19746804749278     -3.35748964745840     -0.19508297438802
  H   7.45720100596880     -4.09824663854936     -1.44608753145898
  H   5.30320417850101     -4.06971527091624      0.15325427745855
  H   3.98967645378173     -3.17018013936644      0.66751268262777
