26
Coordinates from ORCA-job 21537optt
  C   1.03105839261597      0.01932239143172      0.15587654874065
  C   2.55438753835968     -0.02455866053799     -0.09287542280994
  C   3.32359709514777      0.37310161282429      1.18442149565460
  C   2.89893995178781     -1.42881179743764     -0.37463836502609
  N   3.15532875675889     -2.52759416520608     -0.57674262529747
  C   2.95491473298127      0.82546706207055     -1.30032804037119
  C   3.41622116147067      0.27459676350176     -2.44046452275981
  C   3.77459232348136      1.07180603785692     -3.58552990117273
  F   4.17145886322060      0.38581684187944     -4.65710721710058
  C   3.73596296570237      2.40613646804198     -3.59769735342880
  C   3.27295444403879      3.07975586701392     -2.40789259036505
  N   3.38033175116625      4.36657914862396     -2.36656333721676
  S   2.86838850840415      5.27136260784181     -1.10696768302263
  C   1.92556013767034      4.15740804788889     -0.09426241637558
  N   1.06132724892289      4.53960742622837      0.74630391024025
  N   2.21904305021177      2.81027690991017     -0.22153966297013
  C   2.77901433606997      2.28684533357531     -1.25550730232644
  H   0.78104357442391     -0.67412513918278      0.95849648579941
  H   0.48920258355617     -0.27985771250844     -0.74100200506940
  H   0.73638105287246      1.02400673702319      0.44444533556445
  H   3.10854349429520     -0.35166082072378      1.96920097841109
  H   3.00546363296025      1.35764456371473      1.51351404590768
  H   4.39812019324765      0.37573748331536      1.00231463253203
  H   3.53610035283459     -0.79750645537681     -2.54016842251530
  H   4.04473396184483      2.99210773791160     -4.45107919182966
  H   0.90732989595432      5.54553571031954      0.71579262680741
