27
Coordinates from ORCA-job 21535optt
  C   1.04753559900087      0.37353719013397      0.29975644350279
  C   2.44712204909791     -0.13716133571589     -0.05096674830327
  C   2.93288110889934     -1.13147094390255      0.96647322530709
  C   3.62234788022480     -0.72535149843296      2.11960704249969
  C   3.97966172659277      0.70128033933357      2.39882176478936
  C   5.27444154626240      1.13331365773291      1.73632834700919
  O   5.93954066958228      0.43095698743916      1.03351471908118
  C   4.02689427669778     -1.71707085778313      2.98843733386877
  F   4.73708944978637     -1.40327394069748      4.07310322979165
  C   3.71546964164289     -3.05157397813217      2.76448454069387
  O   4.13138732616150     -4.05291970545138      3.58216369577845
  C   3.81436863305855     -3.97354909348550      4.92188536997674
  N   4.21300238587205     -4.79474468385293      5.76702766820345
  C   3.00249029457608     -3.33214897828431      1.60528500285209
  N   2.63200340686619     -2.40249929982448      0.73084712641686
  C   2.64761811573835     -4.70181960987324      1.31882843513331
  N   2.36321583106726     -5.79126473859442      1.10637415322736
  H   0.69309341649197      1.07810143482748     -0.45175951972892
  H   1.03421070779835      0.87535740323159      1.26939862016142
  H   0.34767066143416     -0.46078152302284      0.34673397500969
  H   3.15083323899252      0.69185365929651     -0.14025879652823
  H   2.42087441038814     -0.64556626163769     -1.01365603559512
  H   4.09290432512174      0.87672830171771      3.47156246968135
  H   3.19470868539736      1.38255048655058      2.06008888335063
  H   5.57313341159173      2.17644412799340      1.95068321029784
  H   3.16585691516279     -3.13703609729763      5.17441605031105
  H   4.80464428649379     -5.51389104226824      5.34981979321169
