26
Coordinates from ORCA-job 21533optt
  C   0.85364306821763      0.02661384831047     -0.29744551350689
  C   2.34200121639630      0.06010199426755     -0.03342819206061
  O   2.60555713111112      0.25498390126376      1.38318765068996
  C   2.35573463671963      1.43794535734833      1.94837278890703
  C   2.30175816931668      1.60662950260662      3.28133339211733
  C   2.10967177695821      2.94637700005987      3.74032555608430
  F   2.08379372135892      3.15577224273553      5.04782290430851
  C   1.95841308702309      3.96704669646109      2.88226540420969
  F   1.77501435400507      5.22460236255447      3.28164224018336
  C   1.97113761678012      3.74917424085147      1.45101362841601
  N   1.80133884884161      4.56801381066304      0.51539533200407
  O   2.21259084112860      2.43359270081953      1.07420598655603
  C   3.00296333036991     -1.28309144773534     -0.36925824561179
  O   2.63512068272061     -1.65487088070474     -1.65855714464000
  C   4.53135936209856     -1.23963423795646     -0.27428966537190
  O   5.05946195868922     -0.89089790314604      0.89627550382574
  O   5.21266946871945     -1.53280638470154     -1.21393852459896
  H   0.39628525729472      0.97978661100596     -0.03744851921482
  H   0.38799457234036     -0.77121621232960      0.28301389295089
  H   0.68521218925558     -0.16621854935913     -1.35459599330047
  H   2.82612734644529      0.86074714423832     -0.59416906894130
  H   2.40818128189169      0.78304581117323      3.96718999791672
  H   1.63489680558093      5.50108103012243      0.88208809050856
  H   2.64620658598864     -2.02233056390778      0.36207023542244
  H   3.45618020827483     -1.82302593917098     -2.14746237118824
  H   4.36168648247320     -0.60142213547008      1.50339063433432
