32
Coordinates from ORCA-job 21539optt
  C   -1.42320159624499     -2.41478283075514      2.08989279632273
  C   -0.23930848056794     -2.02412035915564      1.20160157825157
  C   1.10850444856561     -2.02490568882239      1.95061715328669
  C   1.41038469773100     -3.27180245319565      2.78012287788800
  C   1.57512546156290     -4.55612893233598      1.97161447120666
  C   2.72673304057741     -4.51857421513417      0.94709242401246
  C   3.22294486314778     -5.97069732134883      0.81183606291114
  O   4.58342421748627     -6.10034248897564      0.46458313986417
  C   2.85328607303419     -6.56562588243689      2.14896966959015
  C   3.29741446855712     -7.72379687056352      2.75213024541638
  N   2.85139674910893     -8.11243789615673      3.95270998590811
  C   1.96552470489231     -7.35262296121804      4.53558662785417
  F   1.52584575211790     -7.77444446164180      5.72409243825922
  C   1.44572043829970     -6.15950657111843      4.04243930329742
  C   1.91998462927540     -5.76782943248570      2.80677320828547
  C   -0.20004082492546     -2.87348795662167      0.00429201711000
  N   -0.17043049794593     -3.54063110030026     -0.92802788670941
  H   -1.42440542859009     -1.79707690187940      2.98877502938092
  H   -1.36039223484282     -3.46090548207828      2.38862406640626
  H   -2.36588354713433     -2.27046422496184      1.56506651092523
  H   -0.40178352671574     -1.00903734332803      0.83001092374105
  H   1.09241655231521     -1.16174459633550      2.61972875579144
  H   1.91193652576965     -1.84862947150586      1.23157746173230
  H   0.62974240236260     -3.40588795665609      3.53340696962842
  H   2.33803041012356     -3.09589109768122      3.33244887244725
  H   0.64163913378256     -4.78127702027571      1.44421242093663
  H   3.54948202958323     -3.92438994062177      1.36232724048211
  H   2.43832323055572     -4.08371417758693     -0.00815025671808
  H   2.68017838837989     -6.48064466647026      0.01212857645684
  H   5.11839483686670     -5.72106708427237      1.17051617610571
  H   4.03419453412242     -8.36160335426878      2.27679084871556
  H   0.72381854874918     -5.59992925981137      4.62121029121339
