34
Coordinates from ORCA-job 21552optt
  C   1.79786811218415     -1.01937566450180     -0.59091608720557
  C   2.86699620857348     -0.04740391393457     -0.09471663396130
  C   2.63467068944345      0.70590435126950      1.24693466486375
  C   2.73746732424617     -0.18877072142426      2.54654786240260
  C   3.44479034735074     -1.52237202395949      2.29076097792954
  C   3.45476998862179      0.42263867060511      3.77506347630933
  C   3.08913174702701      1.79214666548548      4.37049324575535
  C   3.89803024224842      3.01515140141846      3.88142308312702
  C   3.25807434182642      3.74232645183689      2.72287445714493
  O   2.66024291091481      4.78070995149434      2.85479205682582
  N   3.34982265398819      3.14723598365792      1.47071846803298
  C   3.71947056828296      1.78513745431095      1.30389113793950
  N   4.91977265583855      1.40716374045674      1.24955811850625
  C   1.23402812049980      1.32029854300421      1.20328010925873
  F   1.06589573472448      2.07611552331222      0.09966077896667
  F   0.27819523375001      0.38564726596278      1.17872106741272
  F   0.94811627005540      2.10164553587099      2.25262255124580
  H   2.21948853716409     -1.62285531160915     -1.39484978285433
  H   0.93279404312722     -0.49294436755629     -0.99064881379183
  H   1.43771948967754     -1.69313775605095      0.18433265829887
  H   3.01848951509969      0.71218135674750     -0.86454191544012
  H   3.82613165023457     -0.54854950783261      0.00860689168865
  H   1.70973187648527     -0.40840819677659      2.84546157456558
  H   4.48305006526958     -1.34707698826565      2.00411222680254
  H   2.96802616674598     -2.12126952585606      1.51953365986568
  H   3.44637532578499     -2.10763594025939      3.21081631229550
  H   4.52985661778220      0.40596687586401      3.57897606919680
  H   3.28916257125626     -0.31332089697243      4.56494362858216
  H   3.29426861669469      1.71764592984087      5.43932614875192
  H   2.02170296043702      1.99630483433167      4.28923770159464
  H   4.91614067956911      2.70761793599157      3.63678984664657
  H   3.94998019694249      3.75344956563899      4.67836043097170
  H   2.65938094590469      3.51888192245682      0.82923620942497
  H   5.54635759224872      2.21095085544222      1.29059781884655
