30
Coordinates from ORCA-job 21555optt
  C   1.05715684966994      0.08688836434982      0.64053308092743
  C   2.47670079392713     -0.01285984233986      0.19190413083460
  N   3.30357076163970      1.00242782492378      0.35272075988428
  N   4.48914920616513      0.57883658918219     -0.13804879872653
  C   4.42301353376969     -0.69470769557953     -0.60159496983395
  C   3.13321038789451     -1.11154588268962     -0.41241389544559
  C   5.60808042568022      1.42289525823793     -0.12779759600151
  C   5.48698501871794      2.75371644582870     -0.34878462546822
  F   4.35549080439722      3.35048266170155     -0.66934900414158
  N   6.53206984843926      3.59939089618568     -0.27009614931749
  C   7.79585995209921      3.15986390586408      0.00437594432899
  C   8.83532921529301      4.25908895249874      0.08765124866119
  N   8.36017722408808      5.48610952102614     -0.54589721926773
  C   8.03320922203292      1.84267462891129      0.20715869869840
  C   9.37605789211742      1.27004143978903      0.53892660044944
  C   6.93883861406777      0.87375837783071      0.13182946517995
  O   7.13534852014577     -0.32712777462216      0.28080941068282
  H   0.87488576284953      1.07272195089846      1.06377915242688
  H   0.83533599258506     -0.66542786003394      1.39877325170922
  H   0.37054604488444     -0.06966785436413     -0.19258578284777
  H   5.29722799081021     -1.18288886646334     -0.99282244022334
  H   2.71938575211876     -2.07435962991261     -0.65764165828875
  H   6.41287119368481      4.59185264590279     -0.44449661493525
  H   9.77034246717032      3.88981769613040     -0.33692009388740
  H   9.02582397352159      4.46897002034596      1.14242814100977
  H   8.56757175358567      5.49448784118766     -1.53698290048452
  H   8.79104907817364      6.30283604223003     -0.13628692316138
  H   10.13797549235512      2.03161629028068      0.68889006365028
  H   9.70060277463172      0.58955622434574     -0.25039466516227
  H   9.30013345348413      0.66655182835380      1.44433338875000
