27
Coordinates from ORCA-job 21567optt
  C   3.11831437825976      1.00556856081934     -2.35225368288648
  C   2.54595133885956      0.74535285565475     -0.99236587947716
  N   1.32466460736650      0.56588347608543     -0.70770541624643
  N   3.41129417606980      0.67771002625627      0.11198530177047
  C   4.76598456705818      0.84257734315367      0.20950711778509
  N   5.51677087429229      1.09732148037179     -0.78144493533686
  C   6.88601918879923      1.26775890250403     -0.69056035276654
  C   7.54556595286695      1.52207624908414     -1.85016283872357
  C   8.95254431863836      1.70869228881643     -1.82853016149309
  F   9.51625460624334      1.95026386962713     -3.01438893960760
  C   9.72294989557547      1.65998715684937     -0.72639905464707
  C   9.11493485809128      1.40547464816779      0.56071873653882
  O   9.77831128944230      1.37098956597862      1.58825955394132
  C   7.62509970734521      1.18787896880062      0.57111274268457
  C   7.00851219105868      0.91589064574376      1.74935156094908
  C   7.66533155814388      0.79497799805822      3.09108854333332
  S   5.30021943262606      0.64936869539415      1.88227235611881
  H   2.30605370668899      1.01485352886257     -3.07544588683648
  H   3.84379622753707      0.23776661185169     -2.61592501400782
  H   3.64852669842529      1.95588734759229     -2.37374432868754
  H   0.74433540368849      0.62347678429276     -1.53842247626591
  H   2.90200013093233      0.49224211560626      0.96601382203528
  H   7.01038516873504      1.58142878319833     -2.78601795700985
  H   10.79106075545205      1.81280188899513     -0.77153404207124
  H   8.17575857849369      1.72373565600122      3.34212246478962
  H   8.44063602363716      0.03080672463988      3.05662320834662
  H   6.93372436567298      0.55122782759435      3.86084555777064
