28
Coordinates from ORCA-job 21584optt
  C   1.15838941559108     -0.29276049773741     -0.10672714008340
  C   2.66934858483675     -0.08208859160637      0.00449987438038
  C   3.08288079618263      0.45864475878168      1.35191566166475
  C   3.57293291611544     -0.41244006525220      2.28951311944525
  C   3.95559912841121     -0.02657076138915      3.59147157092343
  C   4.42374301203390     -1.05056615316401      4.59142212779136
  O   5.58348628446323     -0.63532975650522      5.31085244660801
  C   3.86631869426777      1.29467798466232      3.95364594308986
  O   4.21221007170716      1.75254594355430      5.17876292474002
  C   3.37395844465147      2.25411350928310      3.02992919876045
  C   2.96822874881391      1.82903717168444      1.73766937342723
  C   2.47807539993209      2.88212964744605      0.91836638394500
  F   2.05835423699054      2.59126859653276     -0.31163631425392
  N   2.38936107955331      4.12581102137071      1.24106394892248
  C   2.79591776699445      4.47277667401831      2.46068654720467
  F   2.69429173034557      5.77093141305435      2.73161945793540
  C   3.28457492766274      3.61517973366193      3.39393856159106
  H   0.89799106572500     -0.69706557108033     -1.08533627372835
  H   0.61847925909429      0.64371289600714      0.02545787322810
  H   0.81570780793719     -0.99377066154906      0.65557412847472
  H   3.01434974180658      0.56751845650718     -0.79764762758046
  H   3.17078485164089     -1.04205414483214     -0.13196132919777
  H   3.67212733939086     -1.45961045583874      2.02209322713892
  H   4.59694223403813     -2.00943475716965      4.09777714469116
  H   3.66016324477644     -1.20578400735617      5.35695266713507
  H   6.31429443618070     -0.53423627165926      4.69143130898871
  H   4.76227230502016      1.08498984496453      5.61932662322873
  H   3.59421647583647      3.95537404361090      4.36933857152911
