30
Coordinates from ORCA-job 21581optt
  C   1.66238855612200     -1.50966439536759      2.32812259963261
  C   2.28092450389230     -0.12469741371046      2.31884032430456
  N   3.51006424439427     -0.11939416220579      1.53497363779871
  C   4.10607089116370      1.19644440981318      1.41666194888695
  C   4.78628883437417      1.70060014553633      2.67244334464627
  C   5.19189911845873      0.93395347246994      3.71924973078139
  C   5.16880421810416     -0.49593954854344      3.92833842596364
  C   5.77051674198313     -0.72547886210936      5.12622539506119
  O   6.04565177997365     -1.89156230125836      5.75620959257614
  C   6.18309132168180      0.50717085223558      5.76065487578384
  N   6.73608817455548      0.56726372070529      7.03462766085484
  C   5.84072116870530      1.50838967933003      4.91156199887857
  S   6.00795973400305      3.19807595620584      5.21790703190245
  C   5.54193584750367      3.85717661767623      3.68866433653189
  O   5.65274293473305      5.19957859333211      3.55202173018417
  C   5.02739179626914      3.12003163798585      2.68460370289048
  F   4.70561642677017      3.78798931271347      1.55504555882890
  H   0.74732482344430     -1.52274554271870      2.91988858304908
  H   2.35971079433845     -2.23390779992461      2.75047737134147
  H   1.41130374723856     -1.83124697833593      1.31476570188083
  H   2.53545261773214      0.17471558752795      3.33780005924585
  H   1.55689313594106      0.61204244307946      1.93886016976118
  H   3.31983692249190     -0.47885000645165      0.60736381253526
  H   3.36608450408640      1.95280172031338      1.12061623217896
  H   4.85294810529814      1.17583112155743      0.61790300274001
  H   4.80005798853349     -1.21945958643016      3.22259550315213
  H   5.73586580890109     -2.62998731381763      5.22239850439516
  H   7.09383083655223     -0.32387496609555      7.34862432621941
  H   7.41752095824058      1.30220154024972      7.16410847377595
  H   6.28501346451378      5.55154206623742      4.18844636421801
