32
Coordinates from ORCA-job 21586optt
  C   0.96332130978282     -0.06438737688786     -0.70163647651327
  C   2.36587569756860      0.05654946207783     -0.09193987823990
  C   3.08341653956831     -1.21741366228513     -0.18963690165058
  C   3.67096127520297     -2.25949571089965     -0.26381130789629
  C   3.19618779223818      1.20252310671914     -0.72046195772008
  C   3.22486477484009      1.04054790758566     -2.23894341000541
  C   2.75868318656355      2.62187426832079     -0.22861960538176
  C   3.07280257982751      2.53290069710736      1.28985978797164
  N   4.30985783825287      1.71764074091450      1.33998511713177
  C   4.60411594030174      1.36698602740160     -0.07001144080282
  C   5.03329871405873      2.67522039691547     -0.69532699295315
  N   6.24044976915771      3.05031712741834     -1.07858075476658
  C   6.30621552223764      4.26306701310995     -1.58377877263620
  F   7.51205317348533      4.65560777540059     -2.00090426188142
  C   5.25167658057555      5.14840405165387     -1.72849567748623
  C   3.99036312381751      4.73063796367073     -1.31065924140281
  C   3.88200852980515      3.45816096564967     -0.79273999240915
  H   0.37352336061362     -0.78981147989321     -0.14324865010739
  H   1.01281371499619     -0.39615119451279     -1.73714006159402
  H   0.45021815473297      0.89800798607480     -0.66615615053384
  H   2.23599467603427      0.25235562329225      0.97257556135187
  H   4.18888283802072     -3.18648962828155     -0.32905499915347
  H   2.25362593712362      1.27722739307535     -2.67524673045360
  H   3.47023033187410      0.00830666280100     -2.49628670014661
  H   3.96348423110721      1.68706695309498     -2.70833083384313
  H   1.74901463698441      2.94691548837778     -0.47120976406516
  H   2.25657369855620      2.07253253470558      1.84902032936214
  H   3.24409733008599      3.52479617235115      1.70880728000993
  H   4.17476600159466      0.87478844133063      1.88370516819942
  H   5.30181681692423      0.53931139121730     -0.15731565115387
  H   5.42805347690889      6.12239827169854     -2.16071270246100
  H   3.13575244715861      5.38860463079527     -1.40870432876902
