29
Coordinates from ORCA-job 21594optt
  C   0.53862506046482     -0.38289249244500      0.58267659186447
  C   1.89883756666234     -0.24954951158114     -0.08907357792743
  C   2.99566047518699     -1.13907561183700      0.51084419075323
  C   4.38233320922865     -0.64360473894959      0.10643600133076
  O   4.70541356236753      0.31655494870768      1.10189865833619
  C   4.12730574698786     -0.04964601167972      2.27446913891591
  N   4.54167285900876      0.39553364930348      3.36796904042195
  N   3.08076692180941     -0.94384674263135      1.96859310627640
  C   2.71402210252723     -1.98934763102161      2.81628211303230
  C   2.20179287393491     -1.84652491837021      4.09545906725006
  F   1.98605315385161     -0.62262332810330      4.59478570596737
  C   1.90305743923481     -2.96025284759449      4.86178621300609
  N   2.06805560880899     -4.19591330934786      4.40989008323074
  C   2.52686255314268     -4.36436389594135      3.17364815487394
  C   2.86095895847766     -3.29859209299209      2.35624239612020
  O   3.35866469725685     -3.49144740562956      1.10322361368067
  C   2.76522439000003     -2.60813022226886      0.15951551919488
  H   -0.17287858288833      0.30816968557151      0.13199635700203
  H   0.60990938122428     -0.14346975121154      1.64412744190296
  H   0.12237331894529     -1.38647375567450      0.48878258848074
  H   2.23992500071602      0.78625943554040     -0.01475126030088
  H   1.82615072573645     -0.47986756657614     -1.15724849512563
  H   4.39461000853846     -0.15152799844944     -0.86421676680366
  H   5.11575899899887     -1.45563070633485      0.12902622899966
  H   3.96123399829113      0.11185756185290      4.14809048462569
  H   1.50802057418649     -2.82631252918459      5.86208330213607
  H   2.65553532954511     -5.37704966030742      2.81019379158889
  H   1.69649912555641     -2.82783789759304      0.09862081611217
  H   3.22055494219863     -2.83039465525129     -0.80535050494578
