29
Coordinates from ORCA-job 21606optt
  C   4.76512599267885     -0.83294400365771      0.07884825605629
  C   5.38604920291110      0.50924625079511     -0.12166483232300
  C   4.70586447928499      1.66749720416048     -0.03244780409322
  C   5.23750903133274      2.98490712632270     -0.37737893950832
  C   5.28694511539619      4.09975191894335      0.40374449885373
  N   4.51519150529377      4.33175337657782      1.51169481882331
  C   6.58684034590458      4.76161262892542      0.21818620996208
  C   7.46733265287023      4.75602317959579      1.25455662837872
  C   8.42973752952329      3.64275891100242      1.10959794729263
  C   8.19502701295335      2.63152103963872      1.98750723604779
  F   7.78544298849106      2.92963836657071      3.22356864607016
  C   7.79683505789458      1.30002836335151      1.51718166704902
  N   7.42756087645225      0.40475511547633      2.34691191251694
  C   7.62399931327610      1.26744803582871      0.05740443233434
  O   6.73129238688647      0.35636312981089     -0.46997005405250
  C   8.26584846280260      2.14936539518413     -0.71979668779057
  N   8.87040871392621      3.26055945169986     -0.15629885602158
  H   3.70467147528486     -0.74182052812538      0.30101136746369
  H   5.25579907616782     -1.37635974484153      0.88813006700866
  H   4.88393667204195     -1.42800437886991     -0.82927072843363
  H   3.68442015235844      1.56682788177658      0.31975478151518
  H   5.88162231045566      2.99586191588318     -1.24188326390298
  H   3.98264660646502      3.54947965180664      1.86037423264151
  H   4.91079535474468      4.90667376808249      2.23766713821125
  H   6.97193132523112      4.61058019270537     -0.77971586601574
  H   7.11125967969034      4.87389290130010      2.26905351329719
  H   7.04830024259974     -0.39687535537924      1.84444148257918
  H   8.24988810689578      2.08842141452430     -1.79967297093371
  H   9.11971833018613      4.00403679091115     -0.78653483302647
