29
Coordinates from ORCA-job 21605optt
  C   1.99954175397250      0.32935979860361     -1.45113968337780
  C   2.21857489792499      0.28542576476650      0.06682341165096
  C   0.90140252670232      0.35991524378104      0.79288152167291
  O   0.60326024455940     -0.31087905062086      1.74313464260513
  C   3.10433390808747     -0.82890352651270      0.61756093401130
  C   2.66649167645919     -2.31717120644104      0.57401705161940
  C   1.62782554567150     -2.71980686788798     -0.47227632678125
  C   3.96817585354548     -3.03005342437662      0.30239451373033
  N   4.11065471182202     -4.35892236748309      0.32742275070594
  C   5.28902103051333     -4.80370871011886      0.01891710146100
  F   5.47596814688364     -6.13020060839870      0.03867560764743
  C   6.41398633142181     -4.03903421741783     -0.34105178515135
  O   7.59484078074768     -4.61865625587937     -0.64373849119824
  C   6.25786666816022     -2.67129746150390     -0.37061833210519
  C   5.00138583973405     -2.17554628965303     -0.03329012650169
  C   4.51415663615781     -0.78244608035617      0.02748178986239
  O   5.10745980947399      0.21186979897571     -0.30430114870009
  H   1.56683536963777      1.28951064285843     -1.73486553224358
  H   1.32972072987407     -0.45296049531033     -1.80040024879402
  H   2.95302726842462      0.23426034426412     -1.96977487109133
  H   2.73356394098575      1.22259937163769      0.31932333873500
  H   0.18776005463123      1.10591470433110      0.38842158985047
  H   3.25743866030277     -0.59526975244490      1.67822544123124
  H   2.28140984032738     -2.60977012344569      1.55163040589933
  H   1.98508772413882     -2.52240772978567     -1.48387075119656
  H   0.68695414045705     -2.19328239052648     -0.31418559581167
  H   1.43857909242026     -3.78969330720566     -0.38707154660515
  H   7.51736022926847     -5.57696694057336     -0.56465143070656
  H   7.08131658769435     -2.02287886327594     -0.64167423041834
