28
Coordinates from ORCA-job 21618optt
  C   0.94332558663966      0.04824890026192     -0.18299800940878
  C   2.46382264406440     -0.02107271409114     -0.17663460122937
  C   2.97918770773859     -1.21937626014783      0.62365570771015
  O   2.50016213172609     -2.44520130400843      0.11848664832463
  C   4.49080867819621     -1.20631532466140      0.68785743285233
  C   5.22391876025476     -0.72148142776585      1.73896123277710
  C   4.57038644140067     -0.16436516089295      2.98485048366465
  O   5.47551356695761      0.45032032014675      3.85304162188408
  N   6.58872620553409     -0.70721849034222      1.75280432058413
  C   7.22384067288361     -1.16089836279256      0.74190393889837
  F   8.52989007074048     -1.17252377276869      0.70595937109713
  N   6.60709298913474     -1.65354810087276     -0.34609444912403
  N   7.14746593665937     -2.15039138648996     -1.48622223462298
  C   6.05585261726933     -2.45072995144752     -2.16967814126908
  O   6.10438447589769     -2.98200054382275     -3.38231195664746
  N   4.87081232155369     -2.19406982525706     -1.58153983372374
  C   5.22962297353286     -1.68467124616846     -0.41298321817609
  H   0.59437686646126      0.89174316400384     -0.77815407201051
  H   0.55631495346778      0.16830863008153      0.83092909992873
  H   0.51941578905195     -0.86583147201750     -0.59632674811202
  H   2.88789524905520      0.89255456207886      0.25020745094738
  H   2.84935744612547     -0.10281273532538     -1.19762390076999
  H   2.58430949822373     -1.15876237533453      1.64057908363535
  H   2.87772828269785     -2.58699581206831     -0.76156091839116
  H   4.05088536331031     -0.98629695628575      3.49435332013839
  H   3.80843523395750      0.56352121986245      2.68939926002721
  H   6.36948732711757      0.23621837357037      3.55471537172645
  H   7.02998021034742     -3.09635194744464     -3.63357626071087
