27
Coordinates from ORCA-job 21634optt
  C   1.01051405484991      0.34069057653036     -0.81879328641166
  C   2.35048688847046     -0.01181890562293     -0.15516067682913
  N   2.57507994167885     -1.44154843972245     -0.14032727318070
  C   2.42127965693324     -2.21161281556469      0.86930671155562
  N   2.87151717633602     -3.50795378305554      0.71989174061924
  C   3.06591845245059     -4.40589460547987      1.73571619547840
  C   2.69485768535522     -4.09143340644495      2.98491545094808
  F   2.90012015093328     -4.97025603229072      3.96436238294062
  C   2.00690820781867     -2.86140997748837      3.25153774710435
  C   1.81840102163528     -1.98694348535103      2.20157007423042
  N   1.02890575261450     -0.88014931080557      2.36738785177545
  C   0.42081549436391     -0.60253821918266      3.55081447320857
  C   0.61247651351407     -1.36725247170447      4.64158455777743
  C   1.45780387356841     -2.55003261823164      4.60111853032741
  O   1.69040213804598     -3.22697719611002      5.58362292338424
  C   3.43891090312786      0.63294627850170     -0.90873896241673
  C   4.30518655150147      1.19333890071987     -1.51603610684813
  H   0.17101363705821     -0.13240645504229     -0.30357328305109
  H   1.01486601713603     -0.03328261414529     -1.84123645736238
  H   0.86209366074614      1.42005532840441     -0.83808964905357
  H   2.40209383555265      0.43447307303066      0.84535140992097
  H   3.26007368063648     -3.69609782876009     -0.19250700500364
  H   3.51881515964137     -5.35249255086991      1.48436404026815
  H   0.80135547449687     -0.32480678590369      1.56224557048379
  H   -0.21164151704261      0.27457011988846      3.55151250270080
  H   0.13839260861809     -1.12187150171264      5.58025282319317
  H   5.08335297995902      1.68170472641337     -2.05209228575971
