27
Coordinates from ORCA-job 21637optt
  C   4.46452112712760      3.21922694563963      1.70692953442756
  C   5.08187992761324      3.25779954280642      0.30973710647922
  N   4.27791361401269      2.46592416963915     -0.60197979758318
  C   4.05001830108895      2.90958921956440     -1.77061436000255
  N   3.31112321775158      2.24028382386122     -2.68390599195121
  C   2.94240737573712      2.73874480001086     -3.93001162715069
  N   2.53259568419433      1.93356568807535     -4.86817642836282
  C   2.20357791438193      2.69426114541246     -5.97925204415704
  C   2.40551163255051      4.02105537092512     -5.74675852236708
  C   2.23496972672425      5.22918134039649     -6.48753458097986
  C   2.50253866038764      6.37917096524528     -5.85351131011624
  F   2.38439817464581      7.58415170636764     -6.40636042993059
  N   2.92766441994615      6.44460429452757     -4.54924982267723
  C   3.12663232801957      5.32960483140384     -3.80467415231413
  C   2.89557790475144      4.11327288378336     -4.36337899388080
  C   5.23129187319141      4.66229563809136     -0.13527744062130
  N   5.27494586982025      5.72756781362116     -0.55860503994243
  H   4.38925803234947      2.17933863726991      2.01847041624444
  H   3.46438713471385      3.64930050074838      1.68024132762928
  H   5.07529493477126      3.77171131066966      2.41992692968327
  H   6.08916409848170      2.83268221298560      0.36047360153219
  H   4.43978679250172      3.85897618694254     -2.13779942996443
  H   3.02262322574964      1.29480695457233     -2.47570066454449
  H   1.84275290833473      2.21702667576877     -6.87605967021688
  H   1.89868406517796      5.25430229831493     -7.51370765671083
  H   3.10385570430111      7.35717966744477     -4.15750568463065
  H   3.45962535167406      5.51337537591177     -2.79171526789153
