25
Coordinates from ORCA-job 21654optt
  C   1.95121215799158      0.33451510732714     -1.14066461655136
  C   3.21541822955798     -0.12327155880864     -0.48112230667378
  N   4.24456691112593      0.71642703246083     -0.39789507952823
  C   5.37950251687173      0.29776885732843      0.15582674101504
  C   5.54688513657712     -0.96026266159443      0.73636386184062
  N   6.61939794761297     -1.36866768921453      1.54525233058929
  C   7.84413353296718     -1.38098875420288      1.23512215263101
  C   8.44038094223312     -1.16213070705292     -0.13366776573937
  O   9.25028638227326     -1.95475605733181     -0.52916827209809
  C   7.96475278071713     -0.01470784186913     -1.00512875841861
  N   7.97409753029139     -0.07753912065794     -2.26232636271802
  N   7.61878691590279      1.15087001633097     -0.31269600765406
  C   6.47087991852812      1.30574040716289      0.18770145896736
  C   4.44896700039311     -1.84268616559834      0.70965355459619
  N   4.51800211324093     -3.08542891916623      1.26122034136756
  C   3.31416837550147     -1.39452226267589      0.05325232148934
  F   2.26364038384747     -2.23249635577491     -0.00170593333401
  H   2.07496477055607      1.36473743872751     -1.46316975997393
  H   1.10687956811687      0.26602221247245     -0.45332040799344
  H   1.71711004391701     -0.28925777412630     -2.00459730825505
  H   8.55581580298871     -1.74751678501587      1.97347098805376
  H   8.34457823761787     -0.98358844101158     -2.55424513449993
  H   6.24109587281881      2.25966188465132      0.65987451135401
  H   5.24901983683474     -3.22954391219962      1.94061778200539
  H   3.65045709151653     -3.57137795016052      1.41635166952830
