23
Coordinates from ORCA-job 21659optt
  C   1.32158018305534     -0.05683909465580      0.04383678043110
  C   2.77142900081720      0.12270392280436     -0.23958521415907
  C   3.52523375262666      1.25011141620918     -0.37725528512617
  C   4.86294597521554      0.82786171318845     -0.62919759666388
  C   4.87551278058893     -0.55658849163001     -0.64400379975316
  N   3.60649206208307     -0.97175231487621     -0.41187634423460
  C   6.07126715334178     -1.33242027851834     -0.83631635868487
  C   6.09049802450294     -2.78571656458683     -0.92375178814118
  C   5.09096435757993     -3.60284394394033     -1.39382636202422
  N   5.37060450868075     -4.93139711639279     -1.33792191454142
  N   6.51986967726796     -5.19657675071881     -0.85975805219613
  S   7.35195208172287     -3.81357179425048     -0.43464029635199
  C   7.17289431489037     -0.56136920648497     -0.95709970970041
  F   8.37246437706407     -1.07648696911968     -1.12214611521975
  O   7.22208466747884      0.74988729726838     -0.94056101321748
  C   6.06774579088666      1.58345831138884     -0.79371681535825
  O   6.25317765384519      2.75629624259029     -0.81184875584682
  H   0.85090510904795      0.91674235641591      0.16076667156886
  H   1.16284242000634     -0.62292684433424      0.96375450558338
  H   0.81655588247919     -0.58311111358253     -0.76835467059713
  H   3.17607553049624      2.26615328533026     -0.30480151136298
  H   3.32574593086604     -1.93134295633490     -0.29100510507693
  H   4.15815876545608     -3.28327110576976     -1.83369124932691
