25
Coordinates from ORCA-job 21655optt
  C   0.85398370934644     -0.24194125062230     -0.05177216244852
  C   2.34611185850572     -0.12396225099490     -0.03743177732864
  C   3.25327844781210     -1.12426744577623      0.17818394268207
  C   2.92084319052396     -2.56566372234361      0.44891147357411
  C   3.43381033472550     -3.39232096502148     -0.70921239685509
  O   4.51414750607962     -3.91459462559920     -0.70713079489692
  C   4.59327896242791     -0.63422378199219      0.12598425044758
  C   4.65657194042233      0.72270842154008     -0.11332447170269
  S   3.08897140678440      1.40646671005492     -0.28513380049931
  C   5.92128227149953      1.34302535998642     -0.16979117942214
  F   5.95186787135367      2.64732747970565     -0.41078342404926
  C   7.07332441943368      0.64258108903037      0.01397837528212
  C   8.34758055194920      1.26423394376714     -0.04327985377243
  C   9.43303855075355      1.76922106303303     -0.09314474092244
  C   7.02102775829397     -0.80935159898678      0.26335456475464
  O   7.99178626152668     -1.51158351123545      0.42266957174279
  N   5.73630867674412     -1.35336900118675      0.29892675265524
  H   0.48961934679427     -0.64618413626387      0.89436058760563
  H   0.52178900446270     -0.90445252911640     -0.85267233814254
  H   0.38363944251591      0.72790621248178     -0.20369223242984
  H   1.84282120151181     -2.68991960121758      0.55226051261412
  H   3.41236431323843     -2.91096031228082      1.36143951083633
  H   2.78246012097374     -3.44535865051366     -1.60086558130168
  H   10.39997469938743      2.20966813644994     -0.13710009196306
  H   5.69811815293324     -2.36498503289808      0.37426530353994
