24
Coordinates from ORCA-job 21651optt
  C   1.49724453655020      0.74093969513554      1.08676389320163
  C   2.68567322038257      0.21737416338734      0.32813665433516
  C   2.50272508531741     -0.70181031825352     -0.83333226773950
  C   2.94437729335294      0.71742696824461     -1.07841808168485
  N   2.04144748893955      1.69594411444069     -1.62574678077031
  C   1.69769534511096      1.59945373045365     -2.86052719613388
  C   2.18051031603897      0.55032842779879     -3.78826400861292
  N   1.88521046637704      0.42060702806223     -5.02370885180253
  S   0.88041640238801      1.40657885617835     -5.87076401124448
  C   0.39051136834257      2.56600802167681     -4.68307012357770
  F   -0.44814620293984      3.47681891961775     -5.16804482496925
  C   0.78335069833173      2.58467885011417     -3.40766679296075
  C   4.40170082826914      0.91612534543157     -1.39097810466204
  O   4.72689498624534      2.13392160038865     -1.85482014621806
  O   5.23543643740456      0.07400727390969     -1.22471572195486
  H   1.20298450240684      0.03185865216724      1.86130266972654
  H   0.65013198489905      0.89804597135986      0.41977356059246
  H   1.72694686841522      1.69438848665548      1.56327072482657
  H   3.58717649484085      0.05282352410711      0.90496372349308
  H   1.48362318036065     -0.92658334492712     -1.12249261447722
  H   3.23848716518741     -1.47502373266066     -1.00723450295928
  H   2.86947152007141     -0.19134636179161     -3.39536287016491
  H   0.41175245004336      3.35687828862363     -2.74618498900204
  H   3.93637756366405      2.69355583987973     -1.86587933724084
