29
Coordinates from ORCA-job 21665optt
  C   3.46613158181762     -0.00517245308983      1.23799584451934
  C   2.54191409161730      0.11132407908975      0.02533137687203
  C   2.77871607309019     -0.99563058348429     -0.96297828294892
  C   3.59782904983512     -0.92516286990858     -2.01835055562514
  C   4.46532365941288      0.25659768886382     -2.33786397945144
  C   3.71149120184965     -2.10098884890801     -2.97593235003907
  C   3.56997107102732     -3.42302655683623     -2.21496251894946
  C   3.50513355641794     -4.67645175388648     -3.07272751198796
  N   2.40212213353917     -3.36201486340344     -1.35951110829778
  C   2.02711196324148     -2.25991295315784     -0.65889059697158
  O   1.14589098580570     -2.29980772932594      0.17693321754705
  C   2.74489898090432     -1.93871302991895     -4.14465425585651
  F   2.84157368032438     -0.71369943309257     -4.68368220067765
  F   3.01895253724108     -2.80437105227828     -5.13297382571363
  F   1.46804084819684     -2.11933216797399     -3.80658301287341
  H   3.26035407680401      0.78303929428292      1.96240493703954
  H   4.51340278977798      0.06808420703267      0.93823413276375
  H   3.31992122086877     -0.96599774200822      1.73338499104485
  H   2.66367662865063      1.08180205879425     -0.45347406706071
  H   1.50664023579345      0.03652959563284      0.35662281837476
  H   4.37829990284857      1.04687639973433     -1.59799119556132
  H   4.22952905071278      0.66555942621968     -3.32098103648175
  H   5.51138681014225     -0.06073964625078     -2.36796517821045
  H   4.70194156603480     -2.08718353921284     -3.43897264990960
  H   4.47355837194345     -3.48301835985999     -1.59396334254495
  H   2.58991178869150     -4.70623862726528     -3.66238515688829
  H   3.53069216686743     -5.55656883816848     -2.42816810255672
  H   4.35763133504263     -4.72582264341642     -3.74904793715169
  H   1.93695264150068     -4.21895905820378     -1.10084845240325
