28
Coordinates from ORCA-job 21661optt
  C   1.16381727682952     -0.20610620389126      0.18022931167823
  C   2.63850000273292     -0.34851514145058      0.25687109089012
  C   3.48579051147411      0.49321956612537      0.86515257241078
  F   3.02553271510403      1.61688553803097      1.44411368477584
  C   4.86609985757987      0.15329004827198      1.05396463150982
  C   5.34649266157902     -0.89264856951625      0.35556374387142
  C   4.46738857363058     -1.58356041185156     -0.56738414741293
  O   3.10698844451656     -1.49075035191957     -0.31268211059888
  C   4.92076610571780     -2.50447146572285     -1.44199041471185
  C   4.26990705290085     -3.79971166769310     -1.53089985541210
  C   5.15672754373117     -4.72969729762010     -1.02185466100239
  N   6.38748700418257     -4.96454904593051     -1.51245497064681
  C   4.86015635311106     -4.92307509110899      0.39729670572250
  C   5.47666441027904     -4.17914300497498      1.34250398163055
  S   6.94946750658664     -3.20895701919539      1.15388173484291
  C   6.68172016151652     -1.44374090361299      0.70225568938370
  N   7.69275013419674     -0.69323683658367      0.74511968782315
  H   0.83879829341004      0.68184954602384      0.71557853933327
  H   0.68988523713768     -1.08736392947065      0.61638271022662
  H   0.84600226497815     -0.13898973862270     -0.86133111854328
  H   5.45053830179778      0.66014094598054      1.81079131207743
  H   5.99181356022533     -2.47459324239005     -1.59399946179469
  H   3.26852146461041     -3.83380550942249     -1.11852698928531
  H   6.64453370663734     -4.53190051430382     -2.38697119484569
  H   7.13670137347001     -5.19497154231895     -0.87976821989552
  H   3.95721607120167     -5.45715981031029      0.67406228090978
  H   5.10499692771173     -4.23280129899338      2.35722038674041
  H   8.52773648315078     -1.16963704752855      1.08887508032292
