31
Coordinates from ORCA-job 21684optt
  C   3.70955563564799     -0.88831402250362     -0.43549476824100
  C   2.49311370466961     -0.08969712989599      0.04310982528849
  O   1.75913702925255      0.40304323218745     -1.05116660342128
  C   1.62209076252941     -0.97774618607488      0.86052184141158
  N   0.95576179227098     -1.69402559435919      1.45644776229524
  C   2.91632640681925      1.10731152281890      0.89474403529674
  C   2.61421317905635      2.36024639986073      0.54343681031716
  C   2.99712652483212      3.56797067314420      1.27568783889601
  N   2.68646873143458      4.75753066731315      0.93445098729327
  C   3.79703868180024      3.37262270323609      2.48738360507063
  F   4.15022275031079      4.50485063426712      3.10175522959764
  C   4.18364753846504      2.21029685611254      3.02524075343870
  C   4.99351701714768      2.10928991824022      4.29114548476916
  C   6.46510675502348      1.76483376245799      4.03875726698560
  C   7.19788568472558      2.84100380472677      3.25375164625910
  N   8.59551034666576      2.45998315955341      3.07587272262887
  S   3.81122503478513      0.66862533890916      2.31528319175287
  H   3.37776624495690     -1.71183927504500     -1.06879530143826
  H   4.26879296924062     -1.30193515865530      0.40186558243056
  H   4.35200658363241     -0.22089344708329     -1.00805704156548
  H   1.46632790576522     -0.33869036075063     -1.59205350825011
  H   2.03663148485841      2.51025521053290     -0.35971077570775
  H   2.12833808092704      4.75031601265447      0.08179791462406
  H   4.54562203422390      1.34495119838504      4.93042120046892
  H   4.91924832792034      3.05915611860389      4.82029540222307
  H   6.55249432213028      0.81527979497963      3.50567751744629
  H   6.95436402159356      1.62855956538539      5.00742057224600
  H   7.06353919740729      3.80704903459724      3.75888606050866
  H   6.74674324498782      2.93959531035994      2.26355116887918
  H   9.07731112883188      2.44488633398515      3.96745367495047
  H   9.08186687808765      3.12548392205646      2.48831990354556
