28
Coordinates from ORCA-job 21682optt
  C   1.01284110302044     -0.33555350444459     -1.84813066135994
  C   2.39081419337178     -0.90681476789320     -2.07179118742262
  O   3.25716021749362     -0.33209368090598     -1.08210403365893
  C   4.53346057768570     -0.68141834420371     -1.09281370005153
  C   5.32745867719769      0.03718898901265     -0.03393318831577
  N   4.49726542668097      0.38253864845212      1.10741238660834
  N   4.94712838041643     -1.52456284929651     -1.96124294345130
  C   6.27838401697623     -1.84668887964039     -2.09584476756155
  N   7.26449768371014     -1.07211755163263     -1.88382999422948
  C   8.55637712011565     -1.46287522764918     -2.11156346757991
  C   9.71520993519888     -0.77025350504851     -1.93917426235438
  N   10.82167672972553     -1.53945604316314     -2.28668911669074
  C   10.40155702031187     -2.70669059826068     -2.68068104969290
  C   8.96306819606156     -2.77746068132225     -2.61176327845563
  C   8.06096542101779     -3.72264453566959     -2.89785660295891
  F   8.39590094801616     -4.91885572466185     -3.35556727053901
  S   6.35680798322353     -3.52248709480177     -2.72628122895869
  H   0.32060642701634     -0.75267036274126     -2.57916612716426
  H   1.02036685711138      0.74833555872561     -1.96017071231473
  H   0.65172299749093     -0.58102253723338     -0.85005756477748
  H   2.78591421777891     -0.66573346082378     -3.05915233636679
  H   2.41300240855951     -1.99103084368657     -1.95960137729066
  H   5.80493971055376      0.88770061767179     -0.53900214343155
  H   6.14083956788559     -0.61290446241404      0.28482774816275
  H   3.70609086590198      0.94607327659303      0.82321184009366
  H   5.03635480299553      0.91534191999571      1.77734728329148
  H   9.83401034487819      0.24075897343960     -1.58374067713667
  H   11.07057816960383     -3.48860332839746     -3.00864156639279
