29
Coordinates from ORCA-job 21698optt
  C   1.00386786077109     -0.24782263079916      0.11488951189932
  C   2.48983123913768     -0.07950331238062     -0.00165704035844
  C   3.33738000319268     -1.14217341176384     -0.28922186308967
  F   2.79766039599689     -2.35785134675805     -0.47327439217027
  C   4.71240180638987     -1.02623194143555     -0.39776479970449
  C   5.30257643355384      0.21621151111269     -0.21266591013210
  C   4.48484514176234      1.29981219983552      0.06213388370528
  C   3.10841409988430      1.15419009837947      0.16740605031815
  C   2.45480467118043      2.46463691429502      0.51294964572171
  C   3.53716914309816      3.49284020429461      0.12481182653233
  C   3.45762289579952      4.76469231180546      0.82575578833447
  C   3.40908019125876      5.79828685131007      1.42780863144666
  C   4.89491927155293      2.74318510417344      0.30603628271451
  C   5.96545519998822      3.25074184166539     -0.67875264020568
  O   5.56602474562097      3.08026749551607     -2.01387021031797
  C   5.42019564410647      2.88245532954098      1.67098382914059
  N   5.86428951481912      2.97690654418701      2.72361439268450
  H   0.71823329809039     -1.29534422412820      0.06816399084771
  H   0.49335402125573      0.28196980570900     -0.69200575173109
  H   0.64496455257055      0.16837725491003      1.05749865751261
  H   5.29612767965605     -1.90821414707460     -0.62212392250734
  H   6.37933599210530      0.32284442286026     -0.27260197529732
  H   2.24466065534588      2.51641845335934      1.58545110876109
  H   1.51901708943323      2.64160238959303     -0.01654511685165
  H   3.46430823128411      3.67060723994615     -0.95155382748085
  H   3.36462300277517      6.71327289176882      1.96902829720876
  H   6.91433528364833      2.74634889364399     -0.47085703309685
  H   6.10941684560078      4.32012809766819     -0.52099949059126
  H   5.46608509012108      2.13834515876543     -2.19363792329267
