30
Coordinates from ORCA-job 21700optt
  C   0.82027662653410     -0.36621110570273      0.24472383723621
  C   2.30100109079988     -0.18342090510035      0.13111370758842
  C   3.02312822392316      0.99921493741357      0.05149310089711
  N   4.34728429013183      0.66510941329574     -0.06719808360935
  C   4.49785647759002     -0.67897651333006     -0.06955712189335
  C   5.85865455061448     -1.29130550004457     -0.14942030445603
  N   6.74821966251258     -0.42726220984937     -0.92312284307350
  C   3.24338526231212     -1.23603787275030      0.04836076501571
  C   2.63226857881572      2.39646556194175      0.02469801842575
  C   1.33636159204322      2.84112028040945      0.28673781251063
  N   1.01509461491568      4.13343594071891      0.23780081367697
  C   1.96635746407533      4.96292796534924     -0.05860348575886
  F   1.66910303038460      6.26196171743323     -0.11510127915206
  C   3.28152281029398      4.57529540333892     -0.31588918632529
  C   4.35712732747238      5.57469864660224     -0.65247081645583
  O   5.58771524079928      4.96071145738426     -0.90301299525610
  N   3.59011338196465      3.29679604152338     -0.26788501551630
  H   0.28241523053536      0.16917910381290     -0.54052630466845
  H   0.43642829671511     -0.01997616637541      1.20713858430753
  H   0.57004059968286     -1.42249038775158      0.15496595876325
  H   5.10552082269050      1.31852404217100     -0.18615049975681
  H   5.75868621135306     -2.30847815194640     -0.54297419370777
  H   6.28053684241166     -1.37904424689624      0.85536499827551
  H   6.50420032162590     -0.45172026458535     -1.90660861336121
  H   7.71047926663693     -0.72802567027895     -0.83942128018548
  H   3.01923016138652     -2.29111031092553      0.07085444468543
  H   0.54506570131777      2.15468376340634      0.54845642528865
  H   4.45026654541066      6.28345180929313      0.17770995076515
  H   4.03688550778855      6.15181882116265     -1.52682018677597
  H   5.45777426726197      4.00766440028010     -0.80565620748393
