28
Coordinates from ORCA-job 21707optt
  C   1.14493634902261     -0.47433030152397     -0.08904371260532
  C   2.63645896715453     -0.26722919770205      0.13660399959173
  N   3.28008727311320     -1.55470177496234     -0.09727775694810
  C   4.72893231961814     -1.50458555542475     -0.10194725365179
  C   5.26735018584855     -0.67884028558657     -1.26448819733746
  C   4.59421576845521      0.67352137338344     -1.33737199179375
  N   4.49701590328503      1.42375616308938     -0.10119994823239
  C   3.25363713605775      0.91604263234751     -0.66111926028881
  C   2.29095169932238      1.93160309432567     -1.24862344750522
  C   1.76400956305795      2.91278978564586     -0.21801375196610
  F   1.57797383231810      2.36154242573119      0.98901641213468
  F   2.59818469161934      3.94584119203027     -0.03861589785902
  F   0.58646975623854      3.42167902310051     -0.60402684694483
  C   4.91946434791956      1.44404578825487     -2.57105792615582
  O   4.93971060672415      2.64522042979569     -2.62802277437190
  H   0.82288897165049     -1.31485294802114      0.52374342615674
  H   0.93675598616726     -0.72230605426067     -1.13371890081619
  H   0.55318968372006      0.39571041153309      0.18430403567831
  H   2.80285083904253     -0.01706340315055      1.18813298801564
  H   2.94120903243535     -1.95381779926906     -0.96770664812123
  H   5.12137168189576     -2.52070463324217     -0.15215065704017
  H   5.05564139215179     -1.06764106657925      0.84324489514957
  H   5.08934789654229     -1.21497575645332     -2.20258242532707
  H   6.34754896393384     -0.53529169088276     -1.17031900758152
  H   4.61298916451738      2.41653160770365     -0.30506345888609
  H   1.43083583802383      1.43754781403685     -1.69485328823597
  H   2.76509589080224      2.54183658748678     -2.01513378556439
  H   5.17087625936202      0.83167213859382     -3.45670881949353
