24
Coordinates from ORCA-job 21704optt
  C   1.08590647258952      0.04646614854516      0.13982152648476
  C   2.58425525751847     -0.01824223842183      0.08742327363953
  N   3.22753199108545      1.14097692608420      0.09343437501254
  C   4.55981965896359      1.19433849150983      0.05777877719284
  C   5.13421181398438      2.57110160408901      0.06093440509638
  O   6.30003526829010      2.83259376033377     -0.03519368685808
  C   5.31676138607262      0.03274793790902      0.02607194510132
  F   6.64391386000725      0.06915968236585      0.00198991685699
  C   4.68492758234968     -1.19269617955127      0.02041504551009
  C   3.29765033975472     -1.23669713731407      0.04850091205132
  C   2.63309667956553     -2.54219978945380      0.04871471296331
  C   3.06964037065348     -3.73111847849528      0.60788734887921
  N   2.09163117852140     -4.60800570054344      0.28456534474798
  N   1.12542273807609     -4.02860582490507     -0.41173503953002
  N   1.44060633596502     -2.78883408410989     -0.55883189738760
  C   4.20783552234108     -4.08332610489215      1.36906972199180
  C   5.17399638701007     -4.37982118262569      2.01365889449042
  H   0.79211405320659      1.05906394863189      0.40307162992794
  H   0.68253011536480     -0.65863821295196      0.86631063408476
  H   0.65351844141158     -0.21842548252045     -0.82480934634464
  H   4.35504952529192      3.34795097693525      0.16022500856351
  H   5.28195235255165     -2.09445851669434     -0.01686093554819
  H   2.03240245505913     -5.58718765942728      0.51773546517208
  H   6.03319021436583     -4.63614288449747      2.58782196790176
