31
Coordinates from ORCA-job 21703optt
  C   4.97361081137140     -0.96915424537870     -1.23282621862709
  C   4.70560297138426     -1.09635927432456      0.26019587344327
  N   5.21073275905068      0.04801745361945      1.01448486685640
  C   6.60828260872855     -0.01382327945614      1.39477887199354
  C   4.40476469247507      1.12577448057723      1.12691246885648
  O   3.31926881984546      1.17864647416306      0.55576987159660
  C   4.85869559688629      2.28842894364943      1.95232623654280
  C   4.65077364527315      3.61329290424884      1.49131495236563
  N   4.03910736597785      3.85039280601672      0.31696117185845
  N   5.07610006999828      4.69059496010973      2.16673438425872
  C   5.65246820742740      4.55223565177354      3.34895340203714
  C   6.09719135435332      5.81615215058049      4.01586940969024
  C   5.82150528542585      3.29059078100411      3.96097820321938
  C   6.39613973003087      3.08330359307522      5.29580995888724
  O   6.82388306493143      3.95446003859063      6.01481709476190
  C   5.40226369306875      2.19229208438021      3.21127702961451
  F   5.53713970338173      0.97483416381944      3.74896029984443
  H   4.61297864745832     -1.85351922611400     -1.75860150372867
  H   6.04065160144456     -0.86856143185994     -1.43747919724704
  H   4.45731356032243     -0.09538341801535     -1.62799042945872
  H   5.18700736880759     -1.98698118073487      0.66825608742304
  H   3.63593248155727     -1.16960667847485      0.44356327827704
  H   7.19206373861614     -0.36523912644507      0.54194284793380
  H   6.75648855155965     -0.70181030933038      2.22851066006364
  H   6.98005463058428      0.96776032656170      1.67238728267187
  H   3.47559511809923      3.11672786289792     -0.08647209746605
  H   3.85709852004571      4.81399846570702      0.09367982745758
  H   5.87930671577725      6.65369394480992      3.35921548421266
  H   7.16172594939614      5.77499004181501      4.24634278405788
  H   5.59203940512133      5.94133203997860      4.97385482014101
  H   6.42021333159963      2.03291900275554      5.62847227846227
