29
Coordinates from ORCA-job 21716optt
  C   1.18519189636562      0.07628642914092      0.45275336115781
  C   2.65798678079131      0.02262352889641      0.19429078589723
  N   3.21082901533467     -1.19185298936321      0.06865113314122
  C   4.48615712258207     -1.23301587398575     -0.14599258329943
  F   5.00874851487811     -2.45388229689888     -0.32372804410741
  C   5.33626130614487     -0.12243754847598     -0.21789741654255
  N   6.70402324535930     -0.20513690586656     -0.48288734996165
  C   7.36764981127416      1.03838733891003     -0.88321222001235
  C   6.88044758711640      2.24883449690812     -0.09542079672815
  C   5.37687817272706      2.40040751023269     -0.27206379840930
  C   4.65449175448985      1.09307399737410     -0.11322703351165
  N   3.33537869445691      1.15204233820859      0.09211374975765
  C   7.52346583899938     -1.21728732347975      0.12738476596181
  C   8.53296409483793     -1.79167782556941     -0.86096531264451
  O   9.38068200964114     -2.57205901013535     -0.54102540620860
  C   8.23959185425047     -0.80673742988011      1.41425448924189
  O   7.97264430496415      0.18550890833967      2.02604269928281
  H   0.64948728611530     -0.44178998226136     -0.34315582549696
  H   0.85282315362232      1.10856039077631      0.51011392977825
  H   0.95284384513803     -0.43707277999941      1.38643667004723
  H   7.18831987320986      1.20444900388279     -1.95092666192092
  H   8.44227515991719      0.90502354708871     -0.74941004914147
  H   7.39577387732070      3.14243994633381     -0.44951787107552
  H   7.12456536548768      2.10944492397821      0.95607599338727
  H   5.14311682365384      2.78658168463481     -1.26932979443768
  H   4.95421609417580      3.10900923784288      0.43968577592660
  H   6.91530274471371     -2.07901273575678      0.41518671310201
  H   8.41056086698440     -1.44188114473375     -1.90344142534043
  H   9.02532290544766     -1.50882943614176      1.74321152215682
