30
Coordinates from ORCA-job 21722optt
  C   2.77308446284337     -0.34574512123509      2.37335175303766
  C   2.44373339521710     -1.42812135087297      1.35375592250933
  C   3.05692328817997     -1.16019284292618     -0.02834448791134
  C   4.56378870465230     -1.23004985657924     -0.02330839337357
  C   5.35966184446770     -0.09409734111444     -0.08257824927976
  C   4.82073497471460      1.30293664116848     -0.18273501619081
  C   6.76451733414832     -0.28334060935899     -0.05682793735041
  N   7.86480308778952      0.48910411323238     -0.10425117024112
  C   8.92621186423691     -0.35211437416043     -0.04450739530310
  C   8.51569036500302     -1.68236719798990      0.04548256582736
  N   7.16562087054246     -1.56755338402801      0.03546192000762
  C   6.47302486382102     -2.71841910610402      0.08921944421670
  N   7.44763591015074     -3.69133913971999      0.15024407846427
  C   8.76860787063095     -3.12518174799301      0.12254547894364
  N   9.87684710139447     -3.73431563601554      0.15597018966011
  C   5.12294146290589     -2.54164277006694      0.05860895737874
  F   4.30042557463861     -3.60245501152736      0.08599474910154
  H   2.35752753385725     -0.58854969858688      3.35142488669605
  H   2.36014019774494      0.61723143174317      2.06586228959220
  H   3.85250689880971     -0.22825961274086      2.48945420203378
  H   1.36063945100539     -1.50858716813171      1.23968124303405
  H   2.79089264140534     -2.39819716696420      1.71587456815514
  H   2.73839162633019     -0.18018664605957     -0.38423853052657
  H   2.67307282631435     -1.89851542562857     -0.73487588896416
  H   4.29294800307956      1.45626659779974     -1.12591556427551
  H   5.64447212526757      2.01239560587502     -0.13463471949962
  H   4.12440296636344      1.51921172240390      0.62782036633416
  H   9.93597329167122      0.02227032450346     -0.06945418746497
  H   7.26778194322618     -4.67908035694439      0.19462758951252
  H   9.77099751958783     -4.74410487197781      0.20629133587604
