27
Coordinates from ORCA-job 21736optt
  C   1.16128109723473      0.01677379618687     -0.53794936526407
  C   2.61234748788664      0.13059892504415     -0.21515640731444
  C   3.31108816054919      1.23731095308089      0.04793044948671
  F   2.71335445019867      2.42645004978161      0.04974323999230
  C   4.71561352476947      1.25518689114448      0.43818479324547
  N   5.31620505427346      0.21723326239176      0.89422231793619
  N   4.62353045113624     -0.94897097405787      0.94092104359327
  S   3.56905373925372     -1.32913255809509     -0.29161251086673
  O   4.25221499610417     -1.36916987649859     -1.54728898050272
  O   2.82784453410229     -2.47205320101066      0.13427549234172
  C   5.53318480748233      2.52577588404403      0.31130985131648
  O   6.55844876528468      2.58375091956192      1.26567241032978
  C   6.10554032566122      2.62840660123865     -1.11181339196034
  C   6.98110841789619      1.43778587593619     -1.57033022695221
  N   5.95983328921782      1.15346008141902     -2.57945217735953
  C   5.13239417625544      2.17140030936365     -2.21790728833580
  O   4.04375896578959      2.51588570100729     -2.58656693064826
  H   0.69110454914805      0.99496899514096     -0.48314615047732
  H   0.68168182476293     -0.66522325173278      0.16569473885633
  H   1.02428282691323     -0.38891793568642     -1.54154414782275
  H   5.15499962601806     -1.73110537028430      1.30338957025654
  H   4.87580790664252      3.37948386927645      0.47837174686869
  H   6.83015848206055      1.68057575728900      1.47273486508506
  H   6.54547131425356      3.61248017661808     -1.25802082061135
  H   7.10559027988307      0.64718554186286     -0.83001134484859
  H   7.94679324356251      1.71373927559951     -1.99000126393733
  H   5.75330770365956      0.30912030137832     -3.09364951240708
