30
Coordinates from ORCA-job 21731optt
  C   1.14735044010515     -1.08389373713195     -1.71839204705130
  C   2.67049832463245     -1.19504837095421     -1.67234614949814
  O   3.23706702259978      0.01445761730020     -2.10508900700628
  C   3.19586089581029     -1.47290161642429     -0.24374477687291
  C   2.61455737491794     -2.68590325373978      0.43479981759546
  N   3.12281062914680     -3.85534391089006      0.03931682902112
  C   2.68650603839072     -4.98646531250923      0.57558837429490
  C   1.70970926136788     -5.00112721329625      1.54827530239347
  F   1.27520741450080     -6.14216245294928      2.07858153108998
  C   1.18105868215597     -3.79419132613323      1.96263454140238
  F   0.23684857104747     -3.79531894282015      2.90462072880982
  C   1.60952355010380     -2.59822249401106      1.41105180151969
  C   0.98982728108842     -1.32054215039037      1.91147751037576
  C   1.63281245666940     -0.83527825103819      3.20252140265742
  O   2.97921278003236     -0.51296424689209      2.91187249196570
  C   3.08545973401945     -2.30387310831160     -2.62581358690320
  O   3.80374841556638     -2.08729513751411     -3.56507739416188
  H   0.83712519228223     -0.23073393036724     -1.11507574256739
  H   0.66328150623541     -1.98611182917050     -1.34026454288941
  H   0.81995826467379     -0.90813479253372     -2.74355380408924
  H   3.78072459227464     -0.18595502722170     -2.88217812561992
  H   3.02305348207795     -0.56913105731268      0.33640397687586
  H   4.27636021519012     -1.60885348777440     -0.30760566066652
  H   3.11786466108632     -5.92036729700759      0.23288891892559
  H   -0.07286540520132     -1.48361208009965      2.09667672219209
  H   1.07527965440612     -0.53645440706650      1.16204642972990
  H   1.56974944282662     -1.61828732567220      3.96506197278409
  H   1.09110141179925      0.04378157532286      3.56529910523935
  H   3.43995386534954     -0.27959669182703      3.72188891695071
  H   2.67535424484418     -3.30646974156392     -2.43386553649713
