26
Coordinates from ORCA-job 21738optt
  C   1.59429998827987     -3.46740485863997     -0.06545849765272
  C   3.04703519433241     -3.08781265382960     -0.07813388744604
  O   3.41700727299985     -1.96707776451464     -0.32079413213042
  C   4.03464610247643     -4.20765814074184      0.22028042330154
  C   5.43855172739140     -3.78248401869685     -0.11496555117824
  O   6.00430958641279     -4.02908555463788     -1.13327554642445
  O   5.96582424126065     -3.03984462792514      0.89089010327633
  C   7.20049521681869     -2.44921460671182      0.64416657777559
  C   7.22181727722245     -1.20945018237216     -0.03855829866746
  N   6.08937506249419     -0.62416792562698     -0.45282808112059
  N   8.37789763356348     -0.58297982084129     -0.27687891203488
  C   9.47745509860417     -1.14665118075702      0.13920178205725
  F   10.59436803813595     -0.47687894019335     -0.14269477548059
  C   9.57660190178601     -2.34812140851995      0.83020199080624
  C   10.85052241598778     -2.91484493061269      1.28500449672992
  O   10.92888061170424     -3.95053572360924      1.90005813382051
  C   8.36374846764837     -3.00694808413872      1.07469768386607
  H   0.97706667874716     -2.57348553399788     -0.08753076956917
  H   1.35958754526183     -4.07677328777963      0.80784278787987
  H   1.38652648211162     -4.07408905504711     -0.95011555339295
  H   3.77539681335265     -5.08781271963640     -0.36758058105264
  H   3.94625799280337     -4.45692210741890      1.28014300772928
  H   5.18861463940458     -1.07434037566770     -0.36255373542203
  H   6.17260296992884      0.22607791836976     -0.98250421518389
  H   11.75195282919854     -2.33411884852495      1.03206047772746
  H   8.37315821207258     -3.95237556792798      1.60332507178600
