29
Coordinates from ORCA-job 21748optt
  C   0.92241288773302      0.00254198410007      0.08791074459852
  C   2.39438934816526      0.17897029686506      0.10188602270970
  C   3.20770345078391      1.24326252818574     -0.06930085818147
  C   2.96554047052848      2.67880402411405     -0.36958934840194
  O   3.99260813787383      3.49056192713825      0.20804741550920
  C   5.27688757463450      3.09307956229114      0.03122219914642
  C   6.23829938762421      4.09733412424118      0.01319903972717
  C   5.87710545739402      5.54379554817942      0.16010184607311
  C   7.53703675707306      3.64153876491538     -0.15417020135465
  F   8.51124952178541      4.55662369692917     -0.22519320831090
  N   7.92676982411286      2.40005759358068     -0.26602284869004
  C   6.99704135386570      1.44454065020493     -0.21504574558961
  C   7.47736782920917      0.02818447372121     -0.30387748602841
  C   5.64098983514165      1.73955188871795     -0.07060276147067
  C   4.55819727167758      0.76986756431598      0.02667302015390
  C   4.45780826897273     -0.56421927041263      0.25615170976231
  O   3.15263852315543     -0.93078328601989      0.30115891128161
  H   0.43692205526618      0.97147108072874     -0.01770390158391
  H   0.57569136925556     -0.46173162548445      1.01188249701757
  H   0.61109090943087     -0.62963950719878     -0.74534869334730
  H   2.02921843463562      3.04825128292475      0.04375133244203
  H   2.96396567365159      2.85760299357381     -1.45057383508126
  H   5.18380844307698      5.84873484990238     -0.62435274115022
  H   6.76497239174527      6.16812816492828      0.11042635218866
  H   5.37788357102282      5.71628379088649      1.11441999957787
  H   8.53194798661377      0.01951751104200     -0.56523052213078
  H   6.90931794689570     -0.53371505639153     -1.04816413186433
  H   7.35325092406648     -0.47739764432454      0.65778348585912
  H   5.16988439460823     -1.35221791165488      0.41956170713831
