31
Coordinates from ORCA-job 21745optt
  C   3.51653675720117      0.23948821894563      1.06409883187155
  C   2.47157944922900      0.03733364400284     -0.03725379925223
  C   2.98154252499357     -0.81515262449243     -1.16505957569035
  C   3.03103984595171     -2.22019987184786     -1.11952032783783
  O   2.60732350447700     -2.88780084086876     -0.02291414879744
  N   3.46953198337309     -2.99144458045333     -2.08725636555226
  C   3.93087015591613     -2.42400891565768     -3.20240148582839
  N   4.32873207228876     -3.28285922469556     -4.21915175723110
  C   4.61542765643157     -2.73176465548175     -5.34445020463719
  N   4.61758894739771     -1.41391400266889     -5.65028177697439
  C   5.08587554354684     -0.97502102105243     -6.94817832161336
  C   4.61856877536809     -0.41873707058804     -4.58591281051117
  C   6.04782683139968      0.06546936199091     -4.28814261143834
  O   6.93560326690266     -1.00962647047970     -4.10038690947739
  C   3.99169416195992     -1.03590151827924     -3.36530215659449
  C   3.49822207044867     -0.27472639497762     -2.32358858037358
  F   3.52383416512757      1.06436756972515     -2.45256584350780
  H   3.10920498330599      0.82526237771572      1.88823439517918
  H   4.38388376469012      0.76528713973537      0.66456430774187
  H   3.86819706252370     -0.71434694500942      1.46220556049179
  H   2.16895807252314      1.00591471396430     -0.43381051983300
  H   1.56145928274750     -0.40587223828302      0.37991336837074
  H   2.30262340755244     -2.26861511051939      0.64749835257650
  H   4.85970276684282     -3.38086783843102     -6.18240197369646
  H   4.89454442234514     -1.75226024305933     -7.68525211436200
  H   6.15650719629280     -0.75428758703323     -6.93931578571635
  H   4.54171675884162     -0.07700495086508     -7.24528504506803
  H   4.03320716044312      0.44730436991874     -4.91345369582580
  H   6.01192958693134      0.72847604945058     -3.41688009192773
  H   6.43942741926528      0.64052981623097     -5.12823232598986
  H   6.62384040368178     -1.56202115693641     -3.37351658849504
