26
Coordinates from ORCA-job 21750optt
  C   1.13213227562125     -0.16921542411070     -0.04440565917859
  C   2.63726332976699     -0.01515611186170      0.17122943245339
  C   3.07752273216271     -0.64938976099037      1.45369496873467
  C   3.55456327372740      0.04727545196620      2.50194732409617
  N   3.90669023276785     -0.59273318992693      3.67417317040555
  N   4.38077109106131      0.18824597106252      4.65632433175360
  C   4.69408775804309     -0.36183797850632      5.78635983538571
  O   5.16706604240090      0.38312850860166      6.76707259893288
  C   5.33024565896392      1.77454166832292      6.51996771431413
  C   4.57502740922803     -1.80315895228938      6.12386234782580
  O   4.86691281457383     -2.25407853192298      7.21262157546507
  C   4.08705196238413     -2.54873945870052      5.00365863603254
  F   3.94830648013850     -3.85679785535317      5.15561318197915
  C   3.76493214844900     -1.95084585008780      3.81068213955393
  C   3.26855023888785     -2.60025098522633      2.61360457709305
  F   3.15744639566433     -3.91342932905924      2.68120865771737
  N   2.94769657769200     -2.02282985995023      1.53525823484891
  H   0.83512438828622      0.24851674440488     -1.00581883108280
  H   0.57542195888223      0.34450894136031      0.74032770479415
  H   0.85356258908380     -1.22269323338938     -0.02704757777642
  H   2.91886418533801      1.03868993506178      0.17432591460272
  H   3.17436902451800     -0.49711512791107     -0.64877644987641
  H   3.69896416772694      1.11538003685584      2.52300496236208
  H   5.71502755262246      2.18910228164691      7.44615056129368
  H   4.37523424428495      2.23050685823503      6.26035301414874
  H   6.03716546772425      1.93437525176810      5.70560763412089
