30
Coordinates from ORCA-job 21760optt
  C   2.47548145830188     -0.84902560258871     -0.76044463447947
  C   2.64551707628463      0.21555645704274      0.31821483242483
  C   1.36363071872827      1.00158287360713      0.55942331350171
  N   3.13154305141121     -0.36133982638753      1.57974106524192
  C   2.17608312652009     -1.11892434981629      2.37758855337954
  C   4.47330738489210     -0.50056433803908      1.75245783333186
  N   5.28824128728609     -0.30548104412417      0.74438972423710
  C   6.61677278734529     -0.42076090780193      0.92001872900808
  N   7.56803655724293     -0.26200836535618      0.02924701538179
  C   8.73612728827177     -0.52054945566623      0.69610491538802
  C   8.51507546127617     -0.84185519375363      2.01242196683465
  N   7.15338144537463     -0.77865607414736      2.16135262681139
  C   6.34172908316425     -0.93586562765415      3.24281345548435
  C   5.01720211041577     -0.79898760984315      3.06109766814964
  F   4.21349795006100     -0.83973890550517      4.13279873249391
  C   10.01152885267117     -0.45838667680444      0.06468743037338
  C   11.09471216584881     -0.41097198141314     -0.44590083339423
  H   2.15641311334413     -0.38650079887508     -1.69516033450582
  H   1.71650119519211     -1.58140666318921     -0.47671149215810
  H   3.42060990280286     -1.36181692399683     -0.93308853761353
  H   3.42372924714511      0.90462516940108     -0.00554521406805
  H   0.53140665792861      0.34966055511541      0.83034720208687
  H   1.08550923448921      1.52592132684460     -0.35472724178395
  H   1.49955431209067      1.73879293275658      1.35150035697003
  H   1.41506349033942     -1.53203692238469      1.71601013068286
  H   1.68419746093927     -0.50091587628425      3.13032155653543
  H   2.66185495252040     -1.95409368881297      2.87358043021250
  H   9.18228676581531     -1.09524769436633      2.81653892023196
  H   6.78438981296524     -1.12414950007161      4.21031202865716
  H   12.05161604933149     -0.36385528788541     -0.90739019941579
