29
Coordinates from ORCA-job 21783optt
  C   1.25434522433734     -1.95160429365163      0.19896628970052
  C   2.67210157781336     -1.52058500914732     -0.00103995677741
  N   3.18967848961540     -0.84631379040095     -0.92607079322505
  O   3.43714894962917     -1.95837365936774      1.04666845822636
  C   4.75865394067822     -1.57273268559389      1.04929304989348
  C   5.65882926216185     -2.39168111600491      0.48661046325844
  F   5.32991188806562     -3.54092374476875     -0.05444874262841
  O   6.95069889302442     -2.17179027119550      0.39919796201705
  C   7.44755071621656     -0.99173136695417      0.90781325308693
  C   8.91687350235956     -0.85582331517973      0.72708907449448
  C   6.64483653599734     -0.08493267842869      1.49024606154658
  N   7.13417763660553      1.08939708139461      2.03926516978987
  C   5.19483572024608     -0.31463794192330      1.63089967736247
  N   4.51314301391697      0.58838035400080      2.22392330661759
  C   3.09287603257180      0.47863795282762      2.43964386892827
  C   2.61254753218340      1.58315568408279      3.35450952708251
  O   1.45565560196344      1.75551884657315      3.61721013141013
  H   0.63668463136846     -1.64649734009490     -0.64148485779830
  H   0.86768502181701     -1.50544803115267      1.11690354777059
  H   1.21206372482229     -3.03443214899015      0.31368830514407
  H   2.49692384155988     -0.59224215552201     -1.62294892616502
  H   9.37349021504702     -1.83837391663453      0.62264072955966
  H   9.35097774288013     -0.35487735014677      1.59302414200312
  H   9.16209207043881     -0.27251530951355     -0.16457320083927
  H   7.87468576875748      1.54056321153925      1.52619023029739
  H   6.37818720183678      1.71343838798293      2.29298331324838
  H   2.79222199654443     -0.46873213646707      2.89965503719949
  H   2.52617951609216      0.57487685366308      1.50563308032343
  H   3.40894375144931      2.22727988907400      3.77451179847262
