32
Coordinates from ORCA-job 21788optt
  C   2.06358267962538      0.56083692993090     -2.11441875323195
  C   2.30991273074948      0.47516869998618     -0.61233160669908
  C   3.18616116201626      1.61733874416569     -0.11769193527706
  C   2.57521578906114      3.00736997948164     -0.35466361058792
  N   3.14546292975845      3.80140109852006      0.72566189756578
  C   3.71485636167069      3.06504473669628      1.69521104835146
  N   4.27403731234660      3.54657030577589      2.76398795617824
  C   4.24003650442756      4.89588148181215      2.83894256833006
  F   4.83896134256886      5.38116976871059      3.92050814867811
  C   3.68066068887198      5.74394905599926      1.95179077490488
  C   3.03420198234614      5.19815931698845      0.77916600239854
  N   2.41201335108111      5.77924055093092     -0.17196930709230
  C   3.55734239280027      1.60356869129084      1.38331234656645
  C   2.51519933989236      0.96170939285394      2.34729172153227
  N   2.97170772560262      0.82785819423418      3.72252439237919
  C   1.25311415155415      1.71255646449190      2.32100303853579
  C   0.24922383366374      2.36463463543296      2.28978974258418
  H   1.47470975663859     -0.28622539450780     -2.46474598255037
  H   3.00672238633992      0.56684907120490     -2.66469605071241
  H   1.52098049235936      1.47155403277583     -2.37320144531745
  H   2.79257746514043     -0.47675131389270     -0.37353627773132
  H   1.35377764880299      0.49141073756429     -0.08214553715505
  H   4.13014981657052      1.58323913810970     -0.67043223468722
  H   1.48640515025987      3.01130638198888     -0.26977263502073
  H   2.84473069301517      3.45418824974275     -1.30938773672946
  H   3.70341912060179      6.81112962912693      2.11142372667732
  H   2.40174436739416      6.78429503900178     -0.02856053834267
  H   4.49847962994865      1.08230142598089      1.56134762075740
  H   2.31324044164816     -0.04398623275185      1.97013821749625
  H   3.23931841749079      1.73652186397869      4.08844257525816
  H   3.79549188763686      0.23828508359539      3.75828837551514
  H   -0.64643755188411      2.93942424078042      2.27272349742574
