32
Coordinates from ORCA-job 21800optt
  C   3.33248864632875     -0.32928498490385     -1.13964073138325
  C   2.34267358516853     -0.08132507384046      0.00083061923226
  C   2.79186944387579      1.04697590119722      0.89031353134631
  C   2.43760568362734      2.35102068965351      0.57618813753940
  F   1.69285908713155      2.58870687164000     -0.51830536638647
  C   2.82931337428887      3.41252565915737      1.35953091261279
  N   3.56644300943455      3.23992950374395      2.45058956029007
  C   3.94323156443240      2.00894721302700      2.78404744895477
  C   4.78336497274715      1.87745599690601      4.02378769487033
  C   3.58779504036618      0.88242927303835      2.02400367614352
  C   4.05046543392961     -0.48291331747028      2.46290390344852
  N   3.20655139065561     -0.99092765812805      3.53410326305288
  C   3.58071105230898     -2.29630067986995      4.00201267952194
  C   2.47544075628078     -2.91777289135330      4.80513628408485
  O   1.34937401366733     -2.50146088732703      4.84045761858219
  C   2.81261361306548     -4.18476687615517      5.59391648392000
  O   3.91268169379342     -4.65218968225347      5.61534756554505
  H   2.99597310378823     -1.14866282863024     -1.77467572698864
  H   4.32058081256595     -0.57874251135627     -0.75017076363897
  H   3.43075804714970      0.56418162911807     -1.75660535948767
  H   2.21185434194938     -0.98948320200913      0.59005847564617
  H   1.36672360528770      0.16783832713117     -0.41586795055073
  H   2.53488817186689      4.42181296318342      1.09494480117177
  H   4.76160640972438      2.81845061087490      4.56708563686393
  H   5.82215781573736      1.65416528223635      3.76688658457603
  H   4.41476280970554      1.07487587562629      4.66298872313816
  H   5.07070965183407     -0.41168350681339      2.84858687383190
  H   4.09299947013154     -1.16800649079294      1.60535700515328
  H   2.22153975649867     -0.95810098328880      3.29518860537182
  H   4.48359575951253     -2.25656559721547      4.61996655336061
  H   3.81155519104833     -3.02038696831178      3.19815571142676
  H   1.95281269209731     -4.62174165681403      6.13187754875036
