32
Coordinates from ORCA-job 21822optt
  C   3.35811112253327     -0.20464966736904      1.35793032747109
  C   2.78534467347880     -0.35964632826637     -0.04330028234667
  C   2.94617896522782      0.90516824222032     -0.88239201204675
  N   4.35135558338759      1.19535117985629     -1.03720957044860
  C   4.98127104567727      1.90854446348499     -1.86452139194496
  N   4.51731610925325      2.74948023081398     -2.89821941200071
  C   3.09639090246948      3.02917413667087     -3.08471466525728
  C   2.45424516513510      2.17847867291164     -4.17220044804667
  C   5.36235141168236      3.35847553303806     -3.81538742551471
  C   5.03361128309919      4.14181194144153     -4.86106677082910
  S   6.45870472151705      4.68451764519055     -5.71921775804241
  C   7.52791993027209      3.81781428222008     -4.62043652678423
  N   8.79087703064303      3.72955416686333     -4.59479760393624
  N   6.73067443999152      3.17623378330448     -3.67434432002022
  C   7.27330987590829      2.46355968632700     -2.61769544977504
  C   6.45382000362479      1.88394514509582     -1.75087638327119
  F   6.94040829205716      1.19916724960342     -0.72342225537343
  H   3.24852997728598     -1.12401582217402      1.93326768803608
  H   2.84584601712722      0.59388368034425      1.89968800249349
  H   4.41676471780257      0.04759282806778      1.30628106744321
  H   1.72188337474017     -0.60866670218432      0.00526555388971
  H   3.28525394468674     -1.18114651053666     -0.56173036795418
  H   2.45360884309628      1.73200801434210     -0.35601863167484
  H   2.43172158157062      0.77045835232046     -1.83819858073735
  H   3.00834558524760      4.09040750223449     -3.32498718345668
  H   2.60043127450503      2.89073320001837     -2.13182241289668
  H   2.94855354649833      2.32611093419460     -5.13158997160189
  H   1.40213251293479      2.44315182008799     -4.28181866951983
  H   2.51825434532851      1.11903502412774     -3.92483105709937
  H   4.05383941172341      4.40809822760539     -5.20864790296036
  H   9.23449378448039      4.25039284517658     -5.34222771169766
  H   8.35145052701423      2.42897624296826     -2.57375787409647
