27
Coordinates from ORCA-job 21838optt
  C   1.95302392479133     -0.91926233892579     -0.83690232733219
  C   3.07364208360491     -1.58122634802327     -0.08784428839173
  C   3.35519697394433     -1.15285706561374      1.30488338644091
  N   2.46599376254218     -0.24698411820457      1.84993092729638
  C   4.44410079710163     -1.58297335842239      1.96095449926281
  C   5.44922518093342     -2.48321131489987      1.32416891596254
  N   6.64815828693382     -1.80330171146335      0.75757692027236
  C   7.61967718791282     -1.16879441310824      1.49664224836217
  N   7.61844931122216     -0.86501732236953      2.71456084253659
  O   8.73990970638373     -0.78098062044616      0.78563103022182
  N   9.02454206609644     -1.25157466727329     -0.47215245340002
  C   8.19930706196612     -2.02508986173829     -1.02616129290482
  F   8.49047731556284     -2.48490461808684     -2.22289437873557
  C   6.92803732686354     -2.43056708375515     -0.44023372509301
  N   6.08567772783289     -3.25699100050061     -0.89305527213614
  C   4.95011411949673     -3.22897439434704      0.05644470329330
  C   3.80513463803464     -2.54791667205144     -0.63353456197617
  H   0.97981472541596     -1.14911010786901     -0.39393357817238
  H   1.93215079007672     -1.26625811480775     -1.86771463380958
  H   2.06822008938240      0.16581913828068     -0.83644410886526
  H   1.51312715228148     -0.28659206551386      1.52872943209234
  H   2.55095914362034     -0.07930297956270      2.83949450206836
  H   4.60582979504507     -1.26895781392098      2.98499499970128
  H   5.82222719052745     -3.20455301153088      2.05858371930285
  H   6.75578542221030     -1.13528691904337      3.17209407299705
  H   4.67224358008817     -4.25843522501776      0.29178543794550
  H   3.61097464012856     -2.88069599178479     -1.64660501693940
