29
Coordinates from ORCA-job 21849optt
  C   0.71293713486622      2.59492210701791     -0.98489929213467
  C   2.23120640449142      2.66791726204727     -1.02759983602245
  O   2.69416304119782      3.82235301452886     -0.36202643927916
  C   2.84934315296636      1.38985441015733     -0.44635647328160
  C   4.34247132769916      1.40880947900773     -0.43447835442125
  C   5.14527878124744      1.65564400526109      0.63793061942384
  C   4.81871206274264      1.96441605053529      2.05885107244710
  N   4.15028207588513      3.26741201717155      2.15586226143014
  O   6.45962757473484      1.64446802583491      0.30066170705231
  C   6.50837989442275      1.38385216259038     -1.01735133976496
  C   5.24815164397218      1.23302936146504     -1.52662919819654
  C   5.14543526751597      0.94766071270273     -2.92163379656740
  F   3.94353290482416      0.78146396940021     -3.48328030158067
  C   6.26463971122640      0.85005604874076     -3.64494999948227
  O   7.49572530097272      1.00762655758074     -3.10263595074990
  C   7.73457135440188      1.28025415193468     -1.76781274160649
  O   8.85825357941904      1.39830481197486     -1.38156799740021
  H   0.28951569869778      3.51822112938599     -1.37791046008211
  H   0.37202359634561      2.47468016397914      0.04604539481954
  H   0.34013880593389      1.75666129228826     -1.57644404137061
  H   2.55613664393651      2.76162632753802     -2.06886817472365
  H   2.94761992878196      3.60686244944162      0.55100956303508
  H   2.49080729668612      0.53498340396072     -1.02341194935596
  H   2.48205618570442      1.26644005522195      0.57777236230617
  H   5.74084476094117      1.89456439185214      2.64212452604149
  H   4.12777922053109      1.20922178387191      2.43803496750046
  H   4.79092222549405      4.01000694079947      1.89425946883729
  H   3.85670543470414      3.44499402233980      3.10947440112788
  H   6.28473898965709      0.63869389136963     -4.70316999800140
