32
Coordinates from ORCA-job 21842optt
  C   1.27150882554161      0.17171681648671     -0.54597429378941
  C   2.76632113294775      0.06808387756030     -0.45066770751637
  N   3.44364975074481      1.20073374650012     -0.34096352526710
  C   4.77773318397917      1.12272011418903     -0.23089531920682
  C   5.48545875977444     -0.09593026683139     -0.23086415869260
  N   6.81424179785593      0.19178366027775     -0.10571387288271
  C   6.95359469492706      1.55973958465696     -0.01898797377196
  C   5.73826466852063      2.17956156208198     -0.09003950244363
  C   5.43779142148933      3.64267797559457      0.00572445516569
  C   5.19603060902294      4.35473309447276     -1.33438066315506
  C   4.07114103157552      3.71938832965839     -2.15387939090292
  O   2.82560961189955      3.72794531793517     -1.47433106843797
  C   4.92080374325933      5.84177939131535     -1.10469856789636
  O   3.79745606705369      6.08229685706519     -0.28503785841055
  C   4.75915087591413     -1.26845435470202     -0.34894621951724
  F   5.38299711112267     -2.45117687819866     -0.35545145507188
  C   3.39310378730654     -1.19281990998440     -0.45820991611969
  H   0.99544052066827      1.03593326636682     -1.14873601943172
  H   0.84334221106226      0.30921616302567      0.44895545472712
  H   0.83600351879367     -0.72518597025375     -0.98287191637452
  H   7.55851120178507     -0.48114379065507     -0.07078207244546
  H   7.93168043739226      1.99691147833665      0.10512864544789
  H   6.26007427887299      4.14655386051529      0.51873406980476
  H   4.55507462131342      3.78215566464734      0.63390826996761
  H   6.10739114833464      4.28128365544992     -1.93950936759852
  H   4.33774544442199      2.69558696179587     -2.43467285733155
  H   3.93675089083097      4.28981656754270     -3.07575695114037
  H   2.81072333072844      2.92938089956709     -0.91210688744893
  H   4.79965402111595      6.33159507013784     -2.08006244385754
  H   5.77474413368837      6.30888377895711     -0.60796479390447
  H   3.10288814636760      5.46688195174040     -0.56133632074551
  H   2.81411902168893     -2.10064847525170     -0.55060977175220
