25
Coordinates from ORCA-job 21866optt
  C   0.95468679838540     -0.48622075329565     -0.09082223543242
  C   2.44200218462268     -0.12716147146860     -0.02273561230977
  C   2.86215075155928      0.65475430217954     -1.23397616036670
  C   2.73353583689879      2.03442463576843     -1.29936666708109
  F   2.28607726915516      2.66971416300129     -0.21715621044322
  C   3.04016417434572      2.78685089759658     -2.42654844623438
  C   2.85877390958804      4.19874249934953     -2.43321669243365
  C   2.70985518410841      5.38635104510080     -2.46114829949296
  C   3.53157886632157      2.10495981854600     -3.55252101321970
  C   3.87784089569855      2.82599013944469     -4.73984452819994
  N   4.15728368276665      3.40987768744850     -5.68630827942397
  C   3.68666576621881      0.72301151602939     -3.52749499197709
  O   4.12440913162335      0.06972888543029     -4.63877646719106
  C   5.25197966486155     -0.71530500568977     -4.51056814122479
  N   5.70842932540137     -1.41549781241394     -5.43164564160115
  C   3.33501901133695      0.03075570596538     -2.37594739178388
  F   3.45482455747118     -1.29913657984128     -2.38505236967281
  H   0.66023069983048     -1.05734972487506      0.78886359610771
  H   0.74363025306436     -1.08723156532161     -0.97564618031887
  H   0.34312631477443      0.41521277039819     -0.13557554281379
  H   3.04221820728429     -1.03414665181380      0.03816548186311
  H   2.64244877210053      0.46720822724227      0.86770698472708
  H   2.57808332092158      6.44190738828849     -2.49377471157249
  H   5.72307196490287     -0.65037099523030     -3.53159148643539
  H   5.14291345675793     -1.34706912183940     -6.27801899346873
