27
Coordinates from ORCA-job 21863optt
  C   1.16002470663788     -0.25069551730099      0.07081636122782
  C   2.65119523158516     -0.13703036696683      0.07921488369191
  N   3.19398704245943      1.04570206870244      0.02025261091063
  C   4.55397730847791      1.08555599979118      0.01797034863037
  C   5.35936796229212     -0.06290302728955      0.07070376442344
  N   6.70257604695123     -0.05300803085110      0.05473952364284
  C   7.28604215438641      1.11691253920739     -0.01544844167056
  C   6.61384767334649      2.35901727092098     -0.06560662955020
  C   7.35029185809217      3.66182281561767     -0.13551527108968
  C   5.24651222844902      2.31206512252646     -0.04306339245747
  F   4.55267064863315      3.44404937100377     -0.07724824379453
  C   4.62209657182796     -1.29458445085609      0.15186411146602
  O   5.32919338936206     -2.41272675911075      0.23215364762316
  C   4.57947971820080     -3.62602285983134      0.32501586211971
  C   5.51567531598695     -4.73646455617218      0.43886843251980
  C   6.25758902386441     -5.66869554859330      0.53759665701108
  N   3.32361206174417     -1.32474201143529      0.15191803499629
  H   0.70775434101314      0.73268966390957     -0.01547640055243
  H   0.82277953444816     -0.73650580412320      0.98754641242693
  H   0.84532330075043     -0.88121858340949     -0.76171999346823
  H   8.37219056641968      1.11827482074640     -0.03262403373796
  H   8.42519827534861      3.49194520642698     -0.15797943128270
  H   7.11391559478787      4.28793324506153      0.72555326593615
  H   7.06733865396290      4.22092564293456     -1.02812625563768
  H   3.94969555921752     -3.73447824726452     -0.55932946903315
  H   3.92185742635872     -3.58448683802948      1.19475074201198
  H   6.92380780539559     -6.49333116561483      0.62617290363642
