32
Coordinates from ORCA-job 21867optt
  C   1.19212593051577     -0.37880731509204     -2.98160150520187
  C   2.68171691686059     -0.13635349370874     -2.78850481950286
  C   3.14800820129351     -0.50796491207784     -1.38548220744541
  O   2.91639081078972     -1.89862152895512     -1.19667199328330
  C   4.62911344487959     -0.18842404701418     -1.22161185577766
  C   5.19427270134253      1.03771745716562     -1.31124269766796
  N   6.62209732561140      1.10684823896322     -1.46189813866417
  C   6.88951084324810      2.28271106164471     -2.09017135808464
  N   5.86901560646251      3.05157693244861     -2.25485606167688
  C   4.75520456679978      2.41664243958803     -1.66186464460230
  N   3.67627260663070      3.05924669043893     -1.46534275267748
  C   2.64839685706506      2.52556621025932     -0.61714417247223
  C   7.38237021120771     -0.03664656320690     -1.30427106192353
  F   8.69497507180782      0.18156175925401     -1.33506481167602
  C   6.83344127644494     -1.22719882755130     -1.09872577387173
  C   7.58060163721341     -2.48788059130101     -0.83982280463021
  N   5.42543532574659     -1.29547391739650     -1.07712306900440
  H   0.88519248767525     -0.09730313213386     -3.98816985769579
  H   0.60535042290220      0.21565031134186     -2.27757793159645
  H   0.94576566985979     -1.42831181533952     -2.82710733265840
  H   2.93086917486749      0.91200434513525     -2.96377825167850
  H   3.26389287686082     -0.72858457741855     -3.50041186458901
  H   2.56699919682253      0.05181419070388     -0.65481962723580
  H   2.70587887336508     -2.06776440534379     -0.27431159340741
  H   7.90213444454631      2.52466412263575     -2.38136733485724
  H   2.13431713086082      3.35561331502237     -0.13154941458167
  H   3.04331520970440      1.86406062176510      0.16556788958535
  H   1.88616752255958      1.97977087349503     -1.18679485533503
  H   8.65262611051226     -2.31142501594307     -0.87161732289663
  H   7.33383715721636     -3.24264108821391     -1.59068947215976
  H   7.31819589668944     -2.89199906984978      0.14040849884406
  H   4.97650849163775     -2.18604826931561     -1.22838180157500
