26
Coordinates from ORCA-job 21873optt
  C   1.16169749028262     -0.18495404171243      0.11705594739506
  C   2.65724155131939     -0.10157096828666      0.03404342927843
  N   3.19970802053967      1.11099578631534      0.17233483818342
  C   4.51549381191973      1.22717601081479      0.11169350042132
  C   5.34869831886774      0.14179305609794     -0.09010415736435
  F   6.67101731507584      0.37214052015193     -0.12581279522469
  C   4.82762364199054     -1.13440727173470     -0.24277422281399
  C   3.43922047488505     -1.23162825007548     -0.17311538836190
  C   5.68078756172808     -2.33710980544016     -0.47111530951745
  N   6.91611774142154     -2.40001475140517     -0.69925167750797
  O   4.91625125868939     -3.45297787950750     -0.40406254538937
  C   5.42571529191798     -4.70590809171250     -0.54707967083515
  C   6.65760123719274     -5.18672949616656     -0.74089853585372
  N   6.66666934479079     -6.57791394777430     -0.80157549913013
  C   5.45988827799892     -7.22341842543297     -0.65516641536998
  N   5.17005511442667     -8.45653746855742     -0.65974816128222
  S   4.21784376277635     -5.97684409477257     -0.43370061212373
  H   0.71131681728060      0.45088941574264     -0.64540938447556
  H   0.82247063982918      0.18024640783617      1.08664154333979
  H   0.80904344856495     -1.20537464314865     -0.01943004969185
  H   4.95165169249889      2.21315148477492      0.22869023086458
  H   2.97282091441006     -2.19951405179138     -0.28269494306845
  H   7.33902005897717     -1.47993602974967     -0.71735458745053
  H   7.56838467930290     -4.62930659317889     -0.84392071830147
  H   7.51337157510550     -7.10312703396218     -0.93958205718820
  H   5.98828995820764     -9.04511983732451     -0.79566275853190
