26
Coordinates from ORCA-job 21876optt
  C   1.71608940428265      0.31294100526460      1.12079734012940
  C   2.73149959251940      0.10451198319520     -0.00375615393019
  C   3.95512532550620     -0.64589921633983      0.49100755826532
  C   3.92946939584024     -1.98841652721417      0.48103768203190
  C   4.81493864789456     -3.09522299833688      0.89109002603898
  O   4.41559660630232     -4.21918921818966      0.66476481894119
  C   6.14104970626432     -2.93442686522555      1.57112619386407
  C   6.80547925249681     -4.07278696443781      1.90067836094547
  C   8.06277984338406     -4.02826943295715      2.57012770718325
  F   8.62046982304583     -5.21389475910023      2.85000884560218
  C   8.68877597658791     -2.88873681513944      2.92608688053701
  C   8.02922499458897     -1.66798528570665      2.59220488267727
  C   8.34972615858719     -0.35739135886787      2.77694090154379
  O   7.36937933555698      0.42015053560959      2.26243905327553
  C   6.41498686780914     -0.36965173417380      1.74319173607319
  S   5.12103291149718      0.52230029470056      1.01878461364750
  C   6.74964910381769     -1.68730069120498      1.91086319197454
  H   0.85489594589469      0.87315117536209      0.75717078144414
  H   2.16140330629169      0.86699220130829      1.94755786195826
  H   1.36809657317071     -0.64694924346385      1.50206803830960
  H   3.02811518154915      1.07019140678462     -0.41885683982140
  H   2.28340560949781     -0.46911171690698     -0.81482601142458
  H   3.02236612776873     -2.41113142880906      0.05935732316309
  H   6.37309415994311     -5.03394631328983      1.65949122476996
  H   9.64046741095928     -2.91080131259022      3.43823491128878
  H   9.17888273894330      0.15587327972905      3.22840907151174
