26
Coordinates from ORCA-job 21880optt
  C   1.28733959658310     -0.15717042445156     -0.51478889274795
  C   2.66540409295334      0.03178941456063      0.11507301872247
  C   2.94012262504719     -0.95208041400914      1.20371102365421
  C   3.50705441759490     -0.70989772893278      2.39919815988861
  N   3.98704346279850      0.58345020947800      2.68169908361698
  N   3.57566270863024      1.27670308072200      3.79829957430971
  C   4.24086965340925      2.37579387563344      3.76367213867685
  N   5.07062748622187      2.44034465109649      2.67881811551475
  C   4.93228426752759      1.27087153985434      1.94343981402135
  O   5.47858618971774      0.95360654017826      0.91454488923117
  C   3.73169846386548     -1.76643816398166      3.40841382254392
  N   4.26436366490413     -1.64870711091846      4.55739587792447
  C   3.26709374424344     -3.05063097193655      2.92817610015369
  F   3.38255542839480     -4.13868610249204      3.70372003786523
  C   2.73580793220281     -3.21673092028972      1.71144713004077
  O   2.30923165768595     -4.36757227028017      1.19239903489910
  O   2.56201905528690     -2.20793468926450      0.84925868245942
  H   1.12959154226545      0.59508075015688     -1.28644186472660
  H   0.49957627766996     -0.05040020169398      0.23165944722882
  H   1.19280450217167     -1.14028643261017     -0.97167610435320
  H   2.76389702649739      1.03462381839436      0.52552799652190
  H   3.45337360798645     -0.07147700358954     -0.63549971077893
  H   4.15135258737636      3.15497624272797      4.50189959583042
  H   5.69637448890694      3.18242763569745      2.41838034494411
  H   4.51613608815525     -0.68177097697757      4.74809936714881
  H   2.46212943190326     -5.07188434707199      1.83657331740992
