31
Coordinates from ORCA-job 21889optt
  C   3.60185010664187     -0.29405201292210     -0.96275828936781
  C   2.59553532811773     -0.22213657793818      0.17028797406639
  O   2.87304945942239     -1.32483578451620      1.01027828551326
  C   2.77077112722616      1.04650899656094      1.00892566414493
  N   2.58693344735948      2.41921304887242      0.45902652821850
  C   2.83867290349736      3.24638114622142      1.66142200619904
  C   2.09533525734019      2.54987674014471      2.78556757306404
  O   1.68032022258832      2.98295803725293      3.81567234017728
  C   1.98313961530046      1.07605887315743      2.31058322011847
  O   1.39644526267300      0.19824762575854      2.87508450661715
  C   1.32544678872632      2.70666174739425     -0.27786481452311
  C   1.39737453890065      2.09269849779833     -1.68110835064411
  C   0.03217824342216      2.27590538228358      0.42660752138343
  C   1.23236282515106      4.23095951365753     -0.51534778433624
  F   2.39694075713647      4.74934987390341     -0.90717446972063
  F   0.33070429438120      4.50656683448889     -1.46445277174387
  F   0.83257400527731      4.91621438586133      0.56919479314008
  H   3.38671441409650     -1.15086461051641     -1.59977406608545
  H   4.59210712513613     -0.43312491147207     -0.52720399639499
  H   3.61414740034556      0.61159312240962     -1.56380212775695
  H   1.56842793300578     -0.29976742856701     -0.19855348744084
  H   2.23241980954008     -1.33338185398560      1.73323800091915
  H   3.82480426000679      1.01601631095277      1.32259113297840
  H   2.56540169365324      4.28831783878300      1.56722682129388
  H   3.91164978454211      3.20444660261644      1.87484994441993
  H   1.42732003473840      1.01119157022583     -1.63577227361076
  H   2.28558460564712      2.44834897867816     -2.20170566904527
  H   0.51500137250213      2.37023972139518     -2.25302203220324
  H   -0.00608769445432      1.19008231814840      0.51368072636556
  H   -0.83317310790115      2.59163300566577     -0.15696664208673
  H   -0.06395181402053      2.71269300768663      1.42126973634052
