32
Coordinates from ORCA-job 21882optt
  C   0.81957610296495      0.07047275720337      0.02359726087424
  C   2.31155225699066      0.41427723075942     -0.01367879743672
  C   2.96062493041860      0.22106933973212      1.34122390673705
  C   3.23939921016152      1.37930273154488      2.02879660185715
  C   3.66929274307057      1.39249888988589      3.36549933623924
  C   3.76758965832537      0.21516092721751      4.03978594101866
  C   3.50205936152191     -1.01185506489982      3.38690677530677
  C   3.15335477976329     -1.04676362659001      1.99938026288242
  C   3.02642073306502     -2.35115940376589      1.39436677255352
  C   3.10203084988373     -3.47467691540606      2.17561660071937
  C   3.35224984473461     -3.38492050994529      3.54879214763513
  F   3.39198007172394     -4.52769096581210      4.25052883363302
  C   3.58734968848503     -2.19891154383059      4.15431617292079
  C   2.98263333775612     -2.55590322563030     -0.11808878213510
  C   4.36164631355375     -2.21860976153495     -0.71658634108167
  C   2.60063113466985     -3.91230172304163     -0.51651455761122
  C   2.30916626267193     -5.01463756135526     -0.88312034909413
  H   0.36862387138855      0.16881657581796     -0.96453402032529
  H   0.30126481946866      0.74507626023451      0.70601506804341
  H   0.64621970167404     -0.94540469202103      0.38174323458469
  H   2.41417902710514      1.46723809303102     -0.27791995428496
  H   2.81787262002808     -0.12920571472575     -0.80846367445506
  H   3.09109434251198      2.32625328139799      1.52406093333314
  H   3.88089780453542      2.33373417743124      3.85580387703014
  H   4.04976852324745      0.19226737839747      5.08504478857993
  H   2.99836110456703     -4.45784631633524      1.73744779431693
  H   3.82969162021909     -2.15309738919108      5.20770596812837
  H   2.23272856141033     -1.90760210409713     -0.56194221667971
  H   5.09742368987595     -2.93701610000431     -0.35609780682914
  H   4.67759329071427     -1.22187510573857     -0.40956888532249
  H   4.32888434883218     -2.26844421940263     -1.80465081292182
  H   2.03983939466089     -5.99224569932573     -1.20446607821670
