30
Coordinates from ORCA-job 21895optt
  C   3.10895937724474      0.54560176552618     -0.96155122846149
  C   2.15891403573322      0.03272739729989      0.12514890392530
  C   1.02568652905638     -0.79988750538060     -0.47162134029650
  O   1.47603154062430     -1.94742520465797     -1.18727739847697
  C   2.90469831993750     -0.70675286304183      1.19539547103242
  C   3.52515686047357     -0.26989167543266      2.35503222818427
  C   4.08074839518431     -1.42068762863639      2.99216982685868
  C   3.78980644850887     -2.50183431329977      2.21149299798970
  N   3.07996218171468     -2.05741499093993      1.13138275678854
  C   3.59687594004003      1.09907051181867      2.86087632462715
  C   3.90356280239291      1.35712868060458      4.19230377308248
  N   4.01545020417900      2.60874950361398      4.65288978518913
  C   3.80179080892307      3.56307900068314      3.81667949380925
  F   3.92642816262170      4.83170068725682      4.23559134904017
  C   3.45163916956425      3.35361161454212      2.47079094882103
  N   3.16068667735635      4.40845997526044      1.64701295593229
  N   3.37145595706686      2.12085102070674      2.01281749100227
  H   2.55905263908300      1.07889448663007     -1.74160271288054
  H   3.66238839381592     -0.27635157143151     -1.42141125295774
  H   3.83516544295793      1.22582703229462     -0.52003508481384
  H   1.69598841581442      0.90152972516986      0.59715898659413
  H   0.41748214653898     -0.16784370697897     -1.12579254938204
  H   0.38223099032881     -1.18370120704509      0.32004261984170
  H   1.93240589105450     -1.65794555908440     -1.98320413194124
  H   4.65119641937181     -1.44157359947681      3.90582231922761
  H   4.03291341076588     -3.54351730077020      2.32999884513197
  H   2.71030151539449     -2.61645722991680      0.37665977932329
  H   4.05782416658685      0.55757731178503      4.90294911421967
  H   3.50124087965826      5.31505324418659      1.92016352747578
  H   3.17495627800737      4.20342239871422      0.66111620111352
