26
Coordinates from ORCA-job 21901optt
  C   2.69054352560570     -1.48070200482664      2.01694563385430
  C   3.93869552443662     -0.59625781583550      2.09136992693655
  C   5.10128328969384     -1.28953168079097      1.37041181036738
  N   3.74331203869926      0.69262222356124      1.43205915571200
  C   3.14579175998855      1.82038521562358      1.89402200431520
  C   2.30404093392791      1.97671006378059      2.94272995570966
  F   1.94104661443847      0.91341483810721      3.67131936472641
  C   1.69120133391592      3.22060136136581      3.39461586154778
  N   0.89482166983570      3.30349334057666      4.37636263941735
  C   2.02371828113974      4.49008587964200      2.65685749971133
  N   1.60274596916399      5.62013173541130      3.01535805439465
  C   2.90166967502717      4.39950570809249      1.43308784627168
  O   3.16640902968557      5.33337433127211      0.74262105552169
  C   3.48741099061455      3.02058996153258      1.06966416241182
  O   4.21807849836086      2.90974865164869      0.12401800250659
  C   4.35038259312537     -0.39249165931414      3.49963272836255
  N   4.69845586469721     -0.24740714026267      4.58115977668944
  H   2.46813329624537     -1.66821220168754      0.96664885085193
  H   1.83279034529738     -1.00698639706771      2.48363378971623
  H   2.88089550985494     -2.43058169658209      2.51574197429491
  H   4.83467511914153     -1.42899019037178      0.32190146880416
  H   5.28639377879869     -2.26371100805327      1.81807148910082
  H   6.01054596550673     -0.69320852628999      1.43843233206908
  H   4.37522764889189      0.89265426643548      0.66595584816395
  H   0.73589123426965      2.40054587496137      4.82022265067048
  H   1.02183950963734      5.50721686907116      3.85415611787202
