30
Coordinates from ORCA-job 21909optt
  C   1.11069110174758     -0.49274692672595     -0.71629398042662
  C   2.43294817948662     -0.13688249496528     -0.08194342017189
  O   2.96177696323025      0.92747614348435     -0.29594224110440
  C   3.08981926782182     -1.14106136098856      0.81383858844632
  C   4.06802581448037     -0.73588777733458      1.73689459804341
  C   4.37002144923931      0.72485904224657      1.89866373954181
  O   5.48686976322213      1.15640386964048      2.00305586449568
  C   4.72860083020162     -1.68749746475730      2.52394022080661
  C   4.45171580920363     -3.05327145806958      2.34588940440321
  C   5.21027788441824     -4.11473477032132      3.09589791296605
  C   6.72406301805094     -4.07883222478631      2.85082128629636
  O   7.40808913719996     -3.12253345023578      3.62008596962772
  C   7.16183020548779     -1.77798950594410      3.27024814981706
  C   5.73540524840807     -1.31706828380374      3.58538055078128
  C   3.48294057217053     -3.40598088873143      1.42244550557686
  F   3.20114853725697     -4.70484683488713      1.23269228486101
  C   2.78452352708158     -2.48505244121943      0.67012414978791
  H   0.68600536134100      0.40487153166011     -1.15695935466119
  H   0.42368783668587     -0.92172272342202      0.01321099922750
  H   1.26494184216015     -1.23215917343492     -1.50501704589363
  H   3.49896831074044      1.39372062395378      1.96235688258917
  H   4.83820101192754     -5.09356071294199      2.79807535388173
  H   5.03943955515478     -4.01686293521496      4.17153499683546
  H   6.92317329902881     -3.92108354144647      1.78253724836982
  H   7.14929081177010     -5.03983686618218      3.13920675259416
  H   7.38457023084289     -1.60945091052590      2.20959921948536
  H   7.86409064273795     -1.19335957483861      3.86263129495760
  H   5.75259410316178     -0.24386442215891      3.74001759702042
  H   5.44580880237907     -1.78327277281841      4.53146338909011
  H   2.04748088336206     -2.83777169523037     -0.03745591724496
