29
Coordinates from ORCA-job 21912optt
  C   3.00856258436003      1.25209090924704      1.64993946303215
  C   2.51482892397026      1.88102034511928      0.35467620438623
  C   3.03590659832765      1.14708641267518     -0.91117357887891
  N   2.40391925608021     -0.17778366576108     -1.04341816266849
  C   2.58639433134180      1.90574848972734     -2.10027006849674
  N   2.19011527974110      2.46858250275337     -3.01564666846533
  C   4.57333859151922      1.07467799990042     -0.92992510229672
  C   5.27278882706623      2.26925827874746     -0.91909188515788
  F   4.58826893453676      3.41623867512047     -0.95592130663907
  C   6.65550411347279      2.38890127039284     -0.88248899393391
  C   7.29417528675509      3.65854451506539     -0.88380831842212
  N   7.89548245605916      4.63835529367976     -0.88498561913103
  C   7.42703053560245      1.21082710909200     -0.85571582874999
  N   8.78735415068242      1.28398623981286     -0.77626492895752
  C   6.76220133982872     -0.00552474633684     -0.88631293853978
  C   5.36905159475422     -0.10117788998433     -0.93635839395667
  N   4.82247103334331     -1.36316605396064     -0.95068952281110
  H   2.56791177155249      1.76717598446540      2.50267016025742
  H   4.09298105452268      1.32573636796815      1.73400903600204
  H   2.73668076130795      0.19804528598488      1.73730940789716
  H   2.80752211086739      2.92793642812295      0.31771364173333
  H   1.42346708715559      1.85318767049235      0.30393817950457
  H   1.44022966405245     -0.05500080411715     -1.33399985297274
  H   2.38795154863836     -0.62670373006490     -0.13280559258284
  H   9.23417461030036      2.16784492088750     -0.96183292816687
  H   9.32377837540984      0.46195362664702     -0.98954635665377
  H   7.34125923521224     -0.92127857233953     -0.87855544827129
  H   5.46581629854656     -2.10445572403568     -1.17318885374083
  H   3.90683364499258     -1.43910713930155     -1.36925574331930
