27
Coordinates from ORCA-job 21916optt
  C   1.05083164826595      0.02299943520413      0.11497398078928
  C   2.53929667662346     -0.01276881436501      0.07076024647451
  C   3.32535777211389      1.07283243777414     -0.07287801708360
  F   2.78210416225963      2.27819223762570     -0.20651967919442
  N   4.67509521882885      1.08862250149913     -0.07656492844659
  C   5.26074076713859     -0.05274016234486      0.00883745340154
  N   4.61460693392689     -1.25138272132758      0.09556187266337
  C   5.30861203552130     -2.54036032148929      0.10903359946763
  C   6.76683633539149     -2.44678025627231     -0.29270389604128
  C   7.46769881956237     -3.77095972013927     -0.06544220936238
  O   6.89025218948014     -4.76289506346590      0.28105067634807
  C   7.45575159625638     -1.31969468647823      0.47941922268111
  O   8.82018699664158     -1.26683693819720      0.21647178137300
  C   6.77177855627993     -0.03899991774308      0.05302122746501
  O   7.41060884816884      0.92351651867419     -0.26318812373684
  C   3.19877520476687     -1.30063822689750      0.21429469702232
  N   2.51547045461179     -2.35697571497673      0.41377614423677
  H   0.67835325711283      1.03205007246995     -0.03840181162237
  H   0.69975151782053     -0.35901602807751      1.07487729560227
  H   0.64346585777583     -0.64399922024275     -0.64623052819820
  H   4.78483342280420     -3.21029356383544     -0.57341597003326
  H   5.23167356668002     -2.97960573184570      1.10776265557129
  H   6.86991470886523     -2.21934901847272     -1.36174496663158
  H   8.55458948602412     -3.76212899888496     -0.24545301325507
  H   7.26713432485588     -1.46436654628438      1.55473401831733
  H   9.03572102645785     -0.34873058886732     -0.01001610649409
  H   3.06155861576552     -3.20269096303948      0.52498437868616
