29
Coordinates from ORCA-job 21910optt
  C   0.84369181657071     -0.18707075755307      0.15771017580768
  C   2.37038378550750     -0.11847829126596      0.02930812290048
  C   2.76460551707856      1.37388298404501      0.03603383424531
  O   2.31379834767572      2.05344277752142     -1.11361734412958
  C   2.98390923615751     -0.80071860657880      1.27527216640103
  C   2.66190954195660     -2.22184597585833      1.35512139446758
  C   2.39186389174704     -3.38789362694442      1.39674733525551
  C   2.90362520002303     -0.77585175296937     -1.25931763096900
  C   4.21591823555038     -0.83699066868597     -1.60678674177054
  C   5.24215397361243     -0.28658754127234     -0.77490428355304
  C   6.18523219045524      0.14036583628620     -0.16681764187018
  C   4.75931757383349     -1.46744615284722     -2.85361834368380
  N   5.99693782279955     -1.54996675799255     -3.14513577509942
  C   3.80854463590993     -2.01775637064002     -3.80980689515062
  C   2.49865969809257     -2.02406306389142     -3.61817761973766
  F   1.66218055371957     -2.53956356958647     -4.52169991473513
  S   1.62452997974902     -1.41252547518504     -2.25534351952539
  H   0.56234128437288      0.26501375692985      1.10959586152708
  H   0.48129787243747     -1.21471811018996      0.16301593249100
  H   0.35248248866615      0.37379445317994     -0.63634452422627
  H   3.84050522746072      1.49066364569789      0.16504752279802
  H   2.26929600334137      1.84528704491616      0.88703638621035
  H   2.88050940351875      1.82001305229608     -1.85610891610011
  H   2.59167202787777     -0.29137241384872      2.16015296725958
  H   4.06593939779700     -0.67961845728744      1.28930239449247
  H   2.15974133908290     -4.42525902937957      1.43855930462269
  H   7.00527207688606      0.52445744621556      0.39307485222643
  H   6.58135752411343     -1.13653768638163     -2.42100979234368
  H   4.21532335400657     -2.44165668872981     -4.71828930781079
