30
Coordinates from ORCA-job 21930optt
  C   2.81365841220488     -0.04620845929946     -1.61878207080558
  C   2.04220324144193     -0.35098178358694     -0.33980204582800
  C   2.91736772196869     -0.92847075918233      0.78883707918147
  C   2.13668582054634     -1.27761819293907      2.06068492428071
  C   1.27509918473216     -0.14125488032081      2.59400406549058
  O   0.70432943529329     -0.50014510955576      3.83036118921526
  N   1.26174178168727     -2.43254378283261      1.89824923045448
  C   1.66170515271956     -3.40801947639994      1.18710845597478
  N   0.83252402854705     -4.47285225629533      0.95101497280273
  C   2.99445696564629     -3.40783248672791      0.52263598893904
  C   3.69111811690157     -4.52379478588594      0.07341850407785
  F   3.18620718578409     -5.75253126469851      0.23852602524928
  C   4.91646422084797     -4.42213597786213     -0.54333419178475
  C   5.39820578615743     -3.13185366519504     -0.68296140150447
  F   6.56385657608919     -2.96907060630669     -1.29486261829739
  N   4.80935511583245     -2.04412909705365     -0.26721734751381
  C   3.62547315737897     -2.17364264554034      0.33212152535956
  H   2.17364439292184      0.47085281792047     -2.33370715774346
  H   3.18506745482787     -0.95253513288234     -2.09627416669386
  H   3.67727203073375      0.58807751954527     -1.41192286714607
  H   1.22020501766563     -1.04227830105203     -0.54502636875227
  H   1.59091771344611      0.57110198791764      0.03020721518063
  H   3.68936273048067     -0.19410404935322      1.03155970129785
  H   2.86292376563637     -1.51333080753258      2.85066978578860
  H   0.49305134544203      0.09767721987820      1.86582278211241
  H   1.88106899381176      0.75099715921625      2.76179776210735
  H   0.30012402750400     -1.36709215969176      3.69423169172292
  H   0.00240048673815     -4.49553896749141      1.52136857565965
  H   1.22555204068687     -5.35929155915211      0.69199568630267
  H   5.46195809632578     -5.28645049763989     -0.88972492512816
