28
Coordinates from ORCA-job 21933optt
  C   1.08296161667831     -0.36551109723156      0.60159305056527
  C   2.42389007861907     -0.09950978929795     -0.06919369087263
  C   3.54615584349213      0.04940887579325      0.97071890895223
  O   3.33256248721601      1.14860656397554      1.82871576085956
  C   2.81712754867170     -1.18057824095565     -1.03447728189145
  N   2.60760976166693     -2.45034264115945     -0.72611617086446
  C   2.99553141181315     -3.40284182261337     -1.55999452649007
  F   2.75034720758902     -4.64656934353077     -1.13574284086355
  C   3.62283611897961     -3.25926609495032     -2.78062901875859
  C   4.05659445663335     -4.40181488760221     -3.65889601923644
  C   3.42480998475436     -4.22347544668169     -5.02030764828848
  O   3.93724894667779     -3.57397445122835     -5.89224838588701
  C   3.83885118105090     -1.91348186613088     -3.10390407964265
  C   3.45739904104277     -0.88420519698097     -2.24476522303459
  N   3.81643656408579      0.31433345596749     -2.81955577836381
  N   4.36877209323550      0.07279572532981     -3.93953020722368
  N   4.40438187212148     -1.26377746019927     -4.14341662771677
  H   0.87831506988594      0.41935609239089      1.32839758117168
  H   1.10335332604056     -1.32541377036117      1.11694404663117
  H   0.27490895040479     -0.38765829994846     -0.12964792930783
  H   2.38390821250537      0.83491980938004     -0.63749133330746
  H   4.51486652124858      0.12945646040704      0.46595696358006
  H   3.56458861820522     -0.84008876136105      1.60311589971213
  H   3.46323299607830      1.96224151871868      1.33306384490942
  H   3.75146089303417     -5.34661133240849     -3.21346775266515
  H   5.14154005763349     -4.38896797005908     -3.78522038683537
  H   2.43005438282541     -4.67879475622276     -5.17045376349131
  H   4.73925475781023     -1.64223527303926     -5.01844739164018
