27
Coordinates from ORCA-job 21935optt
  C   3.74540869333134      0.10544028978711      0.90127806814132
  C   2.51490618533133     -0.06515120325368     -0.00673728835127
  C   2.12648537890436      1.21785186298427     -0.59416887274778
  C   1.81460930164540      2.28703677963459     -1.03134268720434
  C   2.78557509048043     -1.11537979619380     -1.05071645470288
  N   3.28746366569795     -0.81135413400266     -2.21841671176767
  N   3.49164637376259     -1.97172158178194     -2.87652502870895
  C   3.12298763173413     -3.03815683024954     -2.14030467102131
  C   2.64582837717277     -2.53934099160086     -0.91884887632936
  C   2.17214437865375     -3.45453376926396      0.03736814983112
  C   1.59235630450572     -3.04010772527392      1.36892268921889
  O   1.29609509226254     -4.13081496758332      2.18815561685306
  N   2.19657425897481     -4.74702645482287     -0.21882269439040
  C   2.66454930082009     -5.18156874684517     -1.37665859526311
  F   2.66187369634889     -6.51152213444376     -1.56858228386062
  C   3.14812161180246     -4.41116099764142     -2.40303715135352
  O   3.61923352993077     -4.88278033999370     -3.58066565032781
  H   3.52969411671514      0.81125819251357      1.70198065350539
  H   4.58047800632211      0.48355162533031      0.31286140605477
  H   4.03123230672262     -0.85261904752041      1.33684828822197
  H   1.67708959495546     -0.41035015545028      0.60503310816716
  H   1.53590579319617      3.23297811986395     -1.42982182808325
  H   3.86611742118511     -1.96041704912493     -3.80913815817327
  H   0.68411176534458     -2.45295614966621      1.17930610703915
  H   2.30169147578043     -2.38117250129225      1.88174373944590
  H   1.42591042034808     -4.93061882709884      1.65818864928883
  H   3.56591022807089     -5.84636346701025     -3.58289952348201
