32
Coordinates from ORCA-job 21940optt
  C   1.18067812825341      0.81238968460403     -0.98872714032977
  C   2.25548879862831      0.19084162029626     -0.10937700117653
  C   3.09602449200331      1.23205848682994      0.66711521883589
  C   4.29526834611119      0.52660572954622      1.37144236666677
  O   3.96274046568796     -0.58656718594896      2.13997830765005
  C   3.44670711126352     -0.26631081390785      3.40660039483403
  C   2.00027530363087      0.18955924864218      3.37370352645948
  C   1.69526852839003      1.56712876215849      2.82066554633134
  C   0.80007428285958      2.35336592614693      3.57001622254971
  N   0.27549917634040      1.89543195273849      4.79480349975361
  C   0.44548850038253      3.62740020110835      3.13714832427383
  C   0.91712428584391      4.11147476598166      1.93908555596670
  C   1.74752522202377      3.31410393398556      1.18067574616210
  F   2.08630633623046      3.79229566426252     -0.02844555373259
  C   2.19544529385150      2.06220847750516      1.59474314134036
  C   3.82482728350899      2.04528417096807     -0.32792482206530
  N   4.50781381139746      2.52999571373979     -1.11010588456767
  H   0.64871440204016      0.03789873332685     -1.54031071169818
  H   1.61822993295160      1.50516801517254     -1.70915917811978
  H   0.45136960339011      1.36302801816477     -0.39256499605890
  H   2.94459282362288     -0.40235728226999     -0.71494698569456
  H   1.81619520608921     -0.48763360635273      0.62187298181408
  H   4.83603060746791      1.26988375447614      1.96946797307673
  H   4.95967811581557      0.16755321468860      0.58605950174527
  H   4.07352225196550      0.49584512131776      3.88639153786895
  H   3.51078086407469     -1.18128599018882      3.99590544804969
  H   1.67888262671606      0.16223229934247      4.41351899319437
  H   1.41532615333175     -0.56967922922195      2.84352440035748
  H   -0.07446636454795      0.94899018475118      4.77647958840958
  H   -0.43631964015798      2.51080532329107      5.15973269939774
  H   -0.22852041107015      4.22718059130398      3.73658687949847
  H   0.63042846190341      5.08210451354128      1.55904441920701
