25
Coordinates from ORCA-job 21957optt
  C   1.00306069163664      0.15255725406170      0.01227061039438
  C   2.51846877798601      0.06096250561280     -0.01423247453880
  N   3.03744265489317      0.15722775324713     -1.38306979112799
  C   3.38337127908003     -0.95839672639262     -2.09580187915540
  C   3.81901452760631     -0.82828611438792     -3.36606659968260
  F   4.15564735644702     -1.91795293260738     -4.04621406815475
  C   3.91883827677139      0.45321168515844     -3.97563540178407
  C   4.37195817486502      0.75298342274170     -5.22436708715517
  F   4.82480858400996     -0.20782639773764     -6.04895764145459
  C   4.39222278317870      2.07537939765061     -5.70198526102210
  C   3.95814307208533      3.14217733724765     -4.96281072183431
  C   3.99502476070032      4.46255588866504     -5.49058523806064
  C   4.02544349305044      5.57749117295672     -5.93189157865040
  C   3.43527739216131      2.95818984327561     -3.60264551357737
  O   3.01589718932246      3.86244217677149     -2.91294617253696
  C   3.46067322377395      1.54011516111997     -3.11961861363953
  N   3.05696486871530      1.35987784757803     -1.89147441710954
  H   0.64822923938399      0.10869833075531      1.04153706610445
  H   0.55133793993278     -0.66870294768427     -0.54484128208730
  H   0.68193757630788      1.09655879145839     -0.42650640452289
  H   2.87516306184766     -0.88132064673721      0.39969515005324
  H   2.97010732092432      0.87896204803579      0.54354821606467
  H   3.29886153758192     -1.91557855489860     -1.60460177763319
  H   4.77180680762351      2.23546673258579     -6.70395507548700
  H   4.04929941011454      6.56920697152348     -6.31484404340212
