30
Coordinates from ORCA-job 21967optt
  C   2.89797808184023     -0.93707909786354     -0.13855408516748
  C   2.67980208220025      0.48499082101101     -0.62627776338847
  O   1.30935914053905      0.72637423714403     -0.89355988659579
  C   3.22407847867986      1.55536356250407      0.33037403530592
  C   4.71853869381067      1.49859965993136      0.50334013131792
  C   5.51593753388769      2.12816239478361     -0.37489928887931
  F   5.06142956708235      2.83449895880457     -1.40726566177781
  N   6.88033248321785      2.12928912269656     -0.32209012943216
  C   7.59231795579447      1.47183989001692      0.65483399709490
  N   8.86311359104014      1.40939325691100      0.80551978498594
  C   6.75235431093510      0.78031964079440      1.61878259701382
  O   7.43677875785449      0.14122532084555      2.59594947405171
  C   5.40108032646644      0.77046337528995      1.55526801322205
  C   4.64762564112714     -0.00093778760584      2.62450713034476
  O   5.09005087435913     -1.32484471072136      2.78239756988538
  C   4.72518565377708      0.77399844597372      3.93966568522496
  O   4.06675368854510      1.74934868204540      4.15736186623087
  H   2.54672818113856     -1.64404266586349     -0.88903525440169
  H   2.33452762501823     -1.11565626821727      0.78224815280497
  H   3.95037809824933     -1.13951166954350      0.06811431701075
  H   3.17820566086145      0.61612118065897     -1.59015002269567
  H   0.79758739370407      0.52287543259490     -0.10348261507931
  H   2.72724525730164      1.47358988831940      1.30046313903302
  H   2.94318538575331      2.52623723743508     -0.07824585623678
  H   7.37342670300806      2.65094327531100     -1.03217074565113
  H   9.39856753035403      1.91787175700755      0.11044849658324
  H   8.38213075631717      0.30291607090363      2.40096504801452
  H   3.59304992738711     -0.05824480089473      2.36526493469433
  H   6.05125060698473     -1.31771975554737      2.87996035985610
  H   5.43500001276487      0.36161454527435      4.68226657663038
