31
Coordinates from ORCA-job 21963optt
  C   1.87572418806933     -0.39567815344188      3.44906239369740
  C   2.37323694685708     -0.85412974188268      2.08984593890900
  C   1.24518184870192     -1.09121997550100      1.10257351579489
  O   3.21939593159198      0.16240295488301      1.54790784686357
  C   4.58683993256767     -0.13507650036976      1.40177593177056
  C   4.81556020758152     -1.21502900279795      0.33950103025159
  C   5.22700563265736      1.15951025722537      0.88307890719742
  O   4.62056051981787      2.06955106149108      0.40205632791715
  C   6.75785402497212      1.24751363691995      0.89176834879142
  O   7.47294663098606      0.30173886383860      1.05117628898436
  C   5.21730355311012     -0.44776363587107      2.75476168702862
  C   5.45357749284700     -1.73065593272989      3.21582149365855
  C   5.96646245496177     -1.89193161827161      4.49998160906356
  C   6.24371286699751     -0.78034597489790      5.26924188441257
  C   5.98712669608306      0.45264549946932      4.68470259939439
  F   6.27444901557922      1.55085569501675      5.38096268827422
  N   5.49097777738751      0.63508062832598      3.49465871410230
  H   1.19531566756254     -1.13289894406493      3.87808203506395
  H   1.34720808259072      0.55241094408516      3.34343954886966
  H   2.71146502067898     -0.24806252978190      4.13433838422803
  H   2.93751126134651     -1.78286362394000      2.21669109587689
  H   0.70699421199109     -0.15843046038078      0.93086339822053
  H   0.54513617663482     -1.83409607763780      1.48723800855725
  H   1.63887776494816     -1.43985390612604      0.14728891936228
  H   4.42769300604635     -0.85402170081507     -0.61321490795896
  H   4.27693875149558     -2.12767034567032      0.59506492095329
  H   5.87392885139003     -1.44891827163112      0.23778923251882
  H   7.13265943820358      2.26492070846734      0.68408651582673
  H   5.25124180174392     -2.58911856771083      2.59171091190130
  H   6.15365066197330     -2.88277935727147      4.89289051249368
  H   6.65046358262526     -0.83908592892857      6.26785421797495
