29
Coordinates from ORCA-job 21968optt
  C   3.52828067745628     -0.17793618542652     -1.05965421714000
  C   2.51545510821943     -0.04658290905339      0.08025189143197
  C   2.99055846047799      0.86299588565939      1.18979702194245
  C   3.61633516379979      0.31088235138185      2.24912471361984
  C   4.20448881117908      1.03312623945842      3.35894118899493
  O   4.84788744540236      0.46462164263775      4.23384751970156
  C   3.95513520091909      2.46556002165688      3.33672235572458
  N   4.45056984685306      3.27455683218290      4.34548173546536
  C   4.30440423706181      2.87124187450615      5.74194452728414
  C   3.28451559998680      3.02860463085068      2.28055165854888
  N   3.04971938281443      4.38278307193103      2.30558455321794
  C   2.48499348863197      4.97088467141116      1.31984067822180
  O   2.23772156621979      6.28467385218645      1.36713728666205
  C   2.09111000596529      4.29379640395937      0.12725847914687
  C   2.29802069287757      2.96887990057786      0.12068000770969
  F   1.96725696819009      2.27957972259571     -0.95301579161522
  N   2.84557156719519      2.25485215218032      1.15712359379102
  H   3.16250974916038     -0.87793884658098     -1.81075431545725
  H   4.47554618728929     -0.55434458207546     -0.67277482092379
  H   3.71790262137532      0.77517106027229     -1.55057105471779
  H   2.39037337798473     -1.02360730584541      0.54533097004386
  H   1.53652572048740      0.24006698084042     -0.29374913384928
  H   3.73377649352829     -0.76426089277815      2.27421299786509
  H   4.18507653672649      4.23555203150319      4.19001726907711
  H   4.90112747826197      1.98818595996565      5.94242455931472
  H   3.26294392836214      2.65855938281446      6.00850160800687
  H   4.65960141019221      3.69291662261172      6.36177710009096
  H   2.55997799601312      6.61179743771883      2.21857120362587
  H   1.65961427736855      4.79338199285739     -0.72360358578426
