30
Coordinates from ORCA-job 21975optt
  C   1.00774822454639     -0.64852416141065      0.14932124423535
  C   2.46773827044186     -0.19871174596032      0.06277335610035
  C   2.83240928117800      0.70308074048031      1.19841505097553
  N   3.41136497465199      0.31659021566470      2.27634817990032
  C   3.56111682098739      1.35796067985732      3.17512338779697
  C   3.05849848950378      2.58690617191384      2.73177631525830
  S   2.39681801048630      2.40380780562218      1.14595950686098
  C   3.12852959980289      3.74906189620243      3.51078066066068
  N   2.59386458550951      4.94925618265121      3.07559389711935
  C   3.18881226624998      6.21644994840157      3.40843452790790
  C   2.86797242969543      7.23157558590304      2.34609978094401
  O   2.26033630536939      6.97272927558560      1.34485177035159
  C   3.72446852716918      3.58050335244571      4.75220619016958
  F   3.77268372751456      4.64661317455313      5.58523499350288
  C   4.25338179294188      2.37866347775930      5.22690502023310
  C   4.87502350281546      2.35105278280908      6.59372906944484
  C   4.16892533145379      1.25604534422305      4.42647970519296
  H   0.76747107550896     -1.32392660191917     -0.67132646324318
  H   0.33287358360595      0.20644505771930      0.09859869095338
  H   0.82874465156959     -1.16812783114899      1.09033047163223
  H   2.64782973776367      0.31068845816471     -0.88562326434484
  H   3.13293228084404     -1.06043400408322      0.11380065603017
  H   2.23445006630487      4.94521266289038      2.12938700338657
  H   4.28388470355199      6.16675674138539      3.48747484968033
  H   2.83418714580867      6.61168031646219      4.36605762582838
  H   3.23503285990948      8.25404303203206      2.54388505692993
  H   5.74048621192039      3.01376152005751      6.64364824918014
  H   5.19596868034832      1.34178007482249      6.84270830014121
  H   4.16759494238900      2.69008325518398      7.35127461637146
  H   4.56085192015723      0.30397659173175      4.75775155079943
