26
Coordinates from ORCA-job 22003optt
  C   1.02701421630560      0.23256518532452      0.60726009273564
  C   2.45754412427446      0.05991255266661      0.18731112917264
  C   3.33249616267212      1.13816848441787      0.14926640434366
  N   4.60332449334284      1.05976184697336     -0.21330262190005
  C   5.03437711608465     -0.15577720901072     -0.55624379674526
  N   6.32249766041215     -0.26064807717825     -0.99541981818176
  N   4.30920946770903     -1.27453666390820     -0.53219518787360
  C   3.03758070250083     -1.16129382470830     -0.16810388037397
  C   2.24683540850177     -2.42340345737135     -0.17183919245787
  N   1.08417053688010     -2.41530949005486     -0.81369007622390
  C   0.35376373864661     -3.51623259266426     -0.88854850538657
  C   0.73548212860883     -4.71771980273141     -0.30195783074621
  O   0.01816877908639     -5.86166928962265     -0.34732631673077
  C   1.93632438470626     -4.71866731676437      0.38392734706038
  F   2.36558122070786     -5.82825740970978      0.99809187892785
  C   2.71871425242875     -3.57886722849335      0.46496163498488
  O   3.86982156615221     -3.58055305910094      1.16284294937381
  H   0.89590068988423      1.20007372928489      1.09247205718756
  H   0.71940532882701     -0.54620247082573      1.30569261282909
  H   0.35460415244595      0.17851192809071     -0.24865510548240
  H   2.98005729199762      2.12405741158321      0.44140891754218
  H   6.93151536398495      0.51318398878571     -0.79377078393494
  H   6.71965857042522     -1.18372694990275     -1.01377613915220
  H   -0.58274801421628     -3.45877783442874     -1.43629744734637
  H   -0.78160504845911     -5.72379430143302     -0.86574643889585
  H   4.01130570608993     -4.45479814921817      1.54663811727404
