26
Coordinates from ORCA-job 22008optt
  C   0.76900156140124     -0.08683797793422     -0.42614505524257
  C   2.26364127705548     -0.01541080171600     -0.25901836992824
  C   3.04146905753229     -1.11145107575741     -0.01856387509334
  C   2.42987419939332     -2.40659402449963      0.13287448448401
  C   3.18051023657435     -3.49144882667632      0.37533868849017
  N   4.56120902452914     -3.44762495461443      0.42313805200701
  C   5.18433961310038     -2.33659349361712      0.31049469947561
  C   6.72619216009454     -2.45859193057042      0.29371658516558
  N   7.24067942555367     -3.78479209205433      0.54345681675730
  C   7.20389284479341     -1.99791277811571     -1.02388041603290
  N   7.53452577958453     -1.64995577162303     -2.06339311233422
  C   4.49151880488540     -1.04217339478148      0.14236095893860
  C   5.14147286919239      0.15006923885126      0.13898256382585
  F   6.45979947255064      0.20686116751197      0.37443950855829
  C   4.59450955055702      1.47725336764052     -0.09076349364106
  N   5.23329829284173      2.57314662508816     -0.11159208511600
  S   2.86513535979812      1.58000498891008     -0.39499554210496
  H   0.29632547241268     -0.44552801794013      0.48973386647938
  H   0.50462655301531     -0.76649913143521     -1.23688787505568
  H   0.35238306168286      0.89204232939060     -0.65698212542171
  H   1.35633276620100     -2.50282842965890      0.06249493752879
  H   2.74368381994997     -4.47072110028267      0.51474828698600
  H   7.14765613751221     -1.78436893659508      1.03854816273561
  H   6.77999651802156     -4.44717787939220     -0.07171004344245
  H   6.98674560507427     -4.06242318396910      1.48479705218118
  H   6.22718053669243      2.42455608384082      0.04880732979973
