30
Coordinates from ORCA-job 22002optt
  C   1.36785148163651     -0.96007282316306     -1.11058518073535
  C   2.79564395204472     -0.58236271244946     -0.76407033219530
  N   3.18290189469563      0.64837490602835     -1.43777080480704
  C   4.52014316511665      1.09096662523619     -1.05797571934024
  C   4.91384612945613      2.34380708060633     -1.76610655619888
  C   4.56999713451900      3.64867640246148     -1.46876433762616
  N   5.17283063958424      4.43790260019938     -2.44694934818945
  C   5.06576940892147      5.81037493867743     -2.47692943985199
  C   4.35084305642574      6.43389594429324     -1.51971921040264
  C   3.70250498945615      5.66961916706158     -0.50807522903324
  F   2.97933570521234      6.31421125891313      0.40773236979348
  C   3.80382838547900      4.32197653175922     -0.48317517346321
  F   3.18777137790089      3.59484745659430      0.44501630119051
  C   5.84316522487890      3.58104743767790     -3.27733312936889
  C   6.62765472307851      4.05680650090166     -4.44936753510508
  O   5.84509977883804      4.81328531970349     -5.36002596298652
  N   5.68990459268684      2.33894698562048     -2.88513813986427
  H   1.08421731952814     -1.89491141557782     -0.62685301048750
  H   1.25685948852357     -1.07521155933154     -2.18851572659712
  H   0.67154605717669     -0.18748756911381     -0.77745021924470
  H   3.47982205671738     -1.36810071860070     -1.09618770182787
  H   2.90883391872168     -0.50702615658398      0.32896314848290
  H   2.51320904479913      1.37957212679222     -1.21870118530796
  H   5.22765122960561      0.31333794402785     -1.35107314281973
  H   4.61402310196601      1.22924977215102      0.02940006376537
  H   5.55696137026486      6.31168433033475     -3.29638860579265
  H   4.24551878321471      7.50833996109951     -1.51215523852899
  H   7.08084637152975      3.18234003054824     -4.91878477320405
  H   7.42949462051089      4.72743463431191     -4.13173692516141
  H   5.14392499751068      4.25047499982060     -5.70427925509192
