26
Coordinates from ORCA-job 22013optt
  C   1.03645708531147      0.34418303813126     -0.12903800424388
  C   2.53792458004374      0.21907081096876     -0.12469199745035
  C   3.28635815350758     -0.51255684474345     -1.19279330560235
  C   2.59480356432646     -1.18904971837032     -2.34721988630997
  C   3.38734252649639      1.00075547149421     -1.11193802680678
  N   2.68702646969700      1.76821040432866     -2.09759555589894
  C   3.11651532615040      1.82570248443847     -3.38409480749628
  O   4.04900453622835      1.21058298823069     -3.83491572348686
  C   2.28811086139716      2.70951020554488     -4.21958224562510
  C   1.60125471198880      3.41120075341762     -4.90068412897103
  C   0.75413067112239      4.26613451231913     -5.74224692946705
  F   0.97431288421636      4.04229453496011     -7.03505688268968
  F   -0.53801548182191      4.03770083375342     -5.50312003687477
  F   0.98974554431388      5.55554296550007     -5.50322097471253
  C   4.62473635748251      1.57943973239241     -0.64461215311524
  C   5.65002518906790      2.05273008870168     -0.24433445092966
  H   0.58740204954692     -0.53273806121425      0.33878574637811
  H   0.63036164430958      0.42412171899279     -1.13586104218612
  H   0.71815801716097      1.22086791236215      0.43825876005847
  H   2.98074170559146      0.17695472287342      0.86209727561636
  H   4.19331070790422     -1.00218695031406     -0.86288376161668
  H   1.76865719943205     -0.59568843815971     -2.73589718099317
  H   2.19276126195046     -2.15199511086281     -2.02778455691709
  H   3.29821167357638     -1.35584491608501     -3.16131259208825
  H   1.97132402092642      2.41516370393591     -1.80329243813460
  H   6.56633874007302      2.46789315740392      0.10103489956347
