30
Coordinates from ORCA-job 22014optt
  C   0.91800527175973      0.02327574075695      0.43452693458016
  C   2.38262381650568     -0.01002783713621      0.13066592875878
  C   3.09042066294056     -1.22177302607967      0.16464997685449
  N   2.39714435408556     -2.39814220451164      0.47141095055140
  C   3.05469671138090     -3.48589510670649      0.33947733747926
  N   4.34787783016283     -3.62499752845353     -0.06253447276345
  C   4.95818023516614     -4.93895036650776      0.05522904667263
  C   5.98894851172769     -5.16194967229813     -0.96019155778300
  C   6.84835366330647     -5.33539623164113     -1.77501673322528
  C   5.25821197750317     -2.48250998862327     -0.04634664862382
  C   6.16604673840758     -2.50001142746507      1.19334476567091
  N   5.36842496916935     -2.69148355460708      2.39444642067222
  C   4.45346978548989     -1.20601048675679     -0.12700431490146
  C   5.06319929729153     -0.00372533258802     -0.45194444545413
  C   4.25654202290337      1.11871632447030     -0.45601330782869
  F   4.80599291624403      2.29817195792259     -0.76444621559559
  N   2.98113806190135      1.14058415542720     -0.17766554069363
  H   0.36737266692967     -0.58150187019981     -0.28728610061209
  H   0.56584801345465      1.05057460873166      0.40127087864676
  H   0.72122605751558     -0.41107466669718      1.41508197973876
  H   2.54183884735024     -4.42622539206125      0.52715445717484
  H   4.17666746178086     -5.69070924465114     -0.06095106000762
  H   5.39546270898560     -5.06790427723423      1.05189942920842
  H   7.60371121547269     -5.49801338638874     -2.50693121352315
  H   5.90525229236789     -2.54909826769648     -0.92608478208805
  H   6.75421539310313     -1.57405686070885      1.17762122326987
  H   6.87321697714819     -3.32868474365834      1.10769718041387
  H   4.68065279166845     -1.95112340933806      2.49352475453060
  H   5.94648638875796     -2.68069834109854      3.22481103388103
  H   6.11477235951918      0.06964043579876     -0.69639590500406
