25
Coordinates from ORCA-job 22015optt
  C   1.48117581379104      0.28525961993873      0.30056909314521
  C   2.76584663511574     -0.36395129231520     -0.19169962137156
  N   3.37005543539990     -1.12447059325142      0.89021062157558
  C   4.59785486448209     -1.01965228441230      1.14540268244817
  N   5.50022049122514     -0.17354356496963      0.43278368971377
  N   6.71025638660290     -0.14388320324718      0.70918751431357
  N   7.18901358181856     -0.91951278748280      1.70129260297600
  N   6.46054250721362     -1.74281505554277      2.49693407423431
  C   5.22517616076190     -1.77940228609102      2.22722118359205
  F   4.46658422484420     -2.54918216014924      2.96629688018425
  C   8.55058370077031     -0.83473941791094      1.95905196095356
  N   9.20313856843818     -1.50834531363318      2.84153077745694
  C   10.46549251890772     -1.00235951327346      2.64760471003101
  O   11.51322561800943     -1.37837826297777      3.35426655628867
  C   11.32718294280403     -2.50893249864765      4.20690647137692
  N   10.57539974449475     -0.10118534887527      1.71378231379730
  O   9.25988206859452      0.01327182395925      1.24775211369470
  H   0.98533914586189      0.80391645497397     -0.51975748398788
  H   1.69456010301243      1.01058087698017      1.08582265406152
  H   0.80427979366548     -0.46672997785442      0.70376697364703
  H   3.44532343567168      0.37657901850441     -0.61465075353880
  H   2.52842996689599     -1.08782706333883     -0.97617600253550
  H   12.28981178095217     -2.67238843008396      4.68061969436041
  H   11.03979193613542     -3.38189723707966      3.62150907175432
  H   10.56183257453081     -2.30541150321979      4.95377222182842
