36
Coordinates from ORCA-job 22011optt
  C   1.35584666116254     -1.08415635104413      1.78570476767944
  C   2.81081893855495     -1.24507698194378      1.36515942329842
  C   2.95660746062215     -1.24586820170820     -0.15282651950929
  N   4.34162930516738     -1.33288645605457     -0.61329606558054
  C   5.08654598464901     -0.08210104680153     -0.60427434678466
  C   5.01623391934959     -2.52003679917435     -0.42397049332439
  C   6.21275110696761     -2.70282105481819      0.16206084646926
  F   6.81402963666253     -1.67417528246256      0.77201021153719
  C   6.99127017929742     -3.94193443693128      0.17159982593304
  N   8.19124591915676     -3.91040163754877      0.56149116213215
  C   9.08545843739496     -5.07286777021039      0.63477074354669
  C   9.28491919054721     -5.70183806367514     -0.74761985222597
  C   10.42481165072842     -4.52516665200969      1.12900954220089
  C   8.57060327167964     -6.11021037138793      1.63757593279983
  N   6.34417493601056     -5.16933079549423     -0.21424230051786
  N   5.22735822296660     -5.24239470502255     -0.72714118170052
  S   4.22672343433333     -3.93101282957661     -1.11691661414856
  H   1.25310932305252     -1.09603140350153      2.87019971310496
  H   0.74145152649030     -1.89149378646866      1.38265002020963
  H   0.94586666514650     -0.14007857430473      1.42157770397479
  H   3.21581339986061     -2.18249143715012      1.75669873463428
  H   3.41611921502942     -0.43892428474568      1.78658249876358
  H   2.53908762331983     -0.32888722824117     -0.57426830897921
  H   2.38121021295688     -2.07383237478275     -0.57404562282477
  H   4.51115239960759      0.65213984454208     -1.16884666600445
  H   6.04418177826611     -0.22859796834210     -1.09802215745892
  H   5.27363488790119      0.30637300601610      0.40019206365473
  H   9.59625855709404     -4.94029654046331     -1.46461531409127
  H   8.37199145614913     -6.17423083736588     -1.10514384301839
  H   10.06923671153092     -6.45883425242644     -0.69259824315523
  H   10.80125542979311     -3.77196338006765      0.43598760466692
  H   11.16056564051457     -5.32657589662409      1.21317462072342
  H   10.30025772851039     -4.05564493956364      2.10528934643472
  H   7.65244049357884     -6.57752495734773      1.28952904917028
  H   8.38678385757281     -5.63743197010431      2.60385876703790
  H   9.32755483837439     -6.88439358319444      1.77670495135190
