27
Coordinates from ORCA-job 22019optt
  C   2.96949258116381      0.96302362459071     -2.65134205809024
  C   2.51057511913031      1.84307317121917     -1.49359042301886
  N   1.06109188978660      1.90733693047971     -1.33130435209110
  C   3.09012420683390      1.36943908849005     -0.15137794653227
  C   4.59095743298866      1.40075183897372     -0.10597758769701
  C   5.36142368269194      0.32345503320851     -0.34516831897416
  O   4.72240263150085     -0.85379089790268     -0.69926449703573
  C   5.33374837148937     -2.05151706850532     -0.55048408920617
  O   4.73622283055288     -3.05742171549777     -0.75517531129049
  C   6.77655737512619     -1.98726515746793     -0.10795042766994
  O   7.43796779752943     -0.83201391240139     -0.59353992248024
  C   6.79779202335334      0.32922836148322     -0.34413564758358
  C   7.54518360991092      1.44468108174412     -0.15972579004421
  F   8.86739558023701      1.33984936708511     -0.19001843669121
  C   7.03908301555914      2.78346094395662      0.07175140961694
  O   7.72630535798615      3.76017080694102      0.21567360745356
  S   5.26699377320810      2.95808794113441      0.19762258132318
  H   2.53370524636331      1.31474866921366     -3.58733664355187
  H   2.65343327625042     -0.06999345904268     -2.48817031261393
  H   4.05569579780359      0.97074653899938     -2.76170407721392
  H   2.85654019722341      2.86685343776060     -1.66388120504019
  H   0.68082850808191      0.97175710567029     -1.22316309649852
  H   0.62852038075532      2.30320763100840     -2.15789424325001
  H   2.75040582746682      0.34978086272336      0.04104166045352
  H   2.68773514373986      2.01152172131554      0.63357589061023
  H   7.29865063315147     -2.85147007795071     -0.50586417262625
  H   6.81116771011519     -2.01570186722912      0.98640340974250
