34
Coordinates from ORCA-job 22023optt
  C   1.01511984701115      0.28854954713822      0.04857664092728
  C   2.51545683923705      0.00410630843353     -0.05883943437713
  C   3.27476651539517      1.31583058758498     -0.22642146577950
  O   4.65782672891290      1.13564409193717     -0.43898904944169
  C   3.00306787897159     -0.76900758562190      1.13912767464929
  C   3.56491242188256     -0.22255736557067      2.26052682406276
  N   3.78163799991225     -1.19498359841189      3.20650404490578
  C   3.35359374200052     -2.39111832125589      2.70617516358307
  C   2.86637036380828     -2.18533049687122      1.40195356742694
  C   2.38068263986184     -3.29840224997322      0.67929330089937
  C   1.94810322904862     -3.16048052469282     -0.76211462082062
  N   1.54867111195564     -4.43281208904265     -1.35180026536267
  C   2.36440596766666     -4.52322159268457      1.31339404993670
  C   2.83307591505355     -4.72861908848767      2.62907946148763
  C   2.78863819849313     -6.08031471466522      3.28377178700210
  C   3.33860799543080     -3.64755193416669      3.29992950382801
  F   3.82367677526598     -3.77333553920011      4.55331988916677
  H   0.63313796711524      0.73248395383414     -0.87272625006344
  H   0.82438605536163      0.98122165964841      0.87142153231770
  H   0.45409454858835     -0.62299881745242      0.25316243400146
  H   2.70267439182645     -0.58321422403161     -0.95941694763041
  H   3.09037486081292      1.96218231634722      0.64261403734848
  H   2.89488668623005      1.84223558435678     -1.10322222732398
  H   4.97755116324078      0.49717696873062      0.20834074914455
  H   3.81825790484696      0.80442478686074      2.47105580508041
  H   4.17934375156835     -1.05852021095837      4.11832625879656
  H   2.76577919077138     -2.67839947091276     -1.31194878092922
  H   1.09198557928545     -2.48343011295801     -0.82461177994209
  H   2.35325255641427     -5.04167675337267     -1.45336424595554
  H   1.17440494760581     -4.28224541057770     -2.27982611711124
  H   1.96214231584291     -5.37569443572247      0.78246334324708
  H   2.38979899657037     -6.82148926609684      2.59400530737920
  H   2.15922052077801     -6.06551329302609      4.17505634318011
  H   3.78309439323329     -6.39993870911828      3.59818346636626
