29
Coordinates from ORCA-job 22028optt
  C   4.23554612712453     -0.34741610785203     -0.58099704783137
  C   5.00844211992168      0.48972037505068      0.41164912472283
  C   4.32472814900401      1.83867541499262      0.72184261606508
  N   4.23935594579572      2.72664250727171     -0.42233212310114
  C   3.74407758587065      4.07741872745882     -0.16062638897918
  C   4.46874855040569      5.03021747578891      0.84654776476788
  C   5.93232357248908      5.21295309001591      0.54813505020408
  C   6.59519172698846      6.33462127077347      0.22165103545919
  F   6.01049652239808      7.53346640349882      0.16367250961660
  S   8.27464209236829      6.38403014585602     -0.21271559490085
  C   8.78980071356926      4.65189366991541     -0.30838271361349
  O   9.91712317946029      4.40302947903098     -0.60775566056501
  C   7.72347466370839      3.67914231599946      0.03135346135297
  N   6.57097206075962      4.01597979018211      0.48598361035354
  N   7.84528914718842      2.34608754500812     -0.33942935954273
  C   7.04949112165322      1.62024332692023      0.34114591152886
  O   6.34563850147920      0.63267880231083     -0.17891361020870
  H   3.25453223340753     -0.58653243100015     -0.17042552948003
  H   4.76679112318753     -1.27432623950607     -0.79032354433282
  H   4.10047489615441      0.20721162339140     -1.50801851815219
  H   5.12873901600583     -0.04426585804148      1.35880035723744
  H   4.81584182628656      2.31076770414132      1.58193009959529
  H   3.30981804192624      1.58580305247165      1.04658667968005
  H   5.13497633997093      2.77545013576839     -0.89144440956663
  H   2.71177520557343      3.98733104799416      0.18874002125405
  H   3.70418149342481      4.58399747853415     -1.12656557327251
  H   4.38417496588700      4.62823196788004      1.85983403558495
  H   3.93908154943043      5.98335722870816      0.83267520207237
  H   6.81427152856061      1.85559005743631      1.38038259405150
