26
Coordinates from ORCA-job 22022optt
  C   1.04706853952458      0.25569407250790      0.35409303535198
  C   2.55057144782666      0.06121549016335      0.25728420354705
  O   3.15947986373232      1.08003312721467     -0.55855029236956
  C   3.24075653014695      0.59531952510186     -1.88805510824901
  C   4.34137336831441      1.28409535148423     -2.72385089236853
  C   5.40583248963130      0.26495609148974     -3.18844209017901
  O   4.85875541407213     -0.98694939926458     -3.58766352102047
  C   4.21417659723996     -1.59976862378523     -2.56101160699391
  C   3.48580456203791     -0.86716371339519     -1.71336851977449
  C   2.94836545959471     -1.22927714324009     -0.43729974287242
  C   2.95434700772977     -2.49851410689923     -0.04648265879480
  F   2.49871238343509     -2.89939023794779      1.14199045832455
  S   3.58526190195079     -3.81582068909822     -0.99935300901291
  C   4.43003027369267     -3.03878827107162     -2.38961471460493
  N   5.13722455845885     -3.71605036283988     -3.18541901523140
  C   3.75233467554949      1.98523782992597     -3.86730019149495
  N   3.28338900956452      2.52034372058750     -4.76506972813227
  H   0.82748333254686      1.23635516219795      0.77427924893152
  H   0.61655282499890     -0.51181631273543      0.99814426783839
  H   0.58031207220268      0.17864984374444     -0.62870181924300
  H   3.00743123639347      0.14191442989757      1.24396577867037
  H   2.27809786247065      0.73532798964877     -2.39472374713573
  H   4.83021335085641      2.02692097456173     -2.08999926414035
  H   6.09818659927861      0.08953254775457     -2.36140200838422
  H   5.95045634214798      0.64483008444051     -4.04834886008330
  H   5.21478229660221     -4.69888738044345     -2.93210020257853
