25
Coordinates from ORCA-job 22020optt
  C   0.83368316927631      0.14308600767304      0.04087987459945
  C   2.32651546840007     -0.01236373925615      0.03540258720196
  C   3.12272761046704      1.09181484794242      0.03555953045732
  N   2.56945377947377      2.35748241417457      0.01036382755722
  C   4.56516773481341      1.05780022327299      0.02716998172377
  C   5.30348443500195     -0.06277633335180     -0.02744804224257
  S   4.60240220845392     -1.64799753126409     -0.12595242289976
  C   2.85362281304648     -1.36614841643712      0.05595699997902
  N   2.08573034241322     -2.38064627245343      0.14517293071888
  C   6.78230573540718      0.02996850256512      0.04299800681792
  N   7.22621159404821      1.01722777566737      0.73279692653976
  O   8.59061939472168      1.21915114408205      0.79332160505626
  C   9.41033493113670      0.38356028448083      0.18465434669815
  F   10.64828109039241      0.75738488101060      0.38104976991416
  C   9.06492567445959     -0.69125412145448     -0.52980890890961
  C   7.65734592557372     -0.97057571346897     -0.66198633492620
  O   7.18968616835348     -1.90279345070151     -1.27310101128189
  H   0.51174338622865      0.80885317092289     -0.76454296746559
  H   0.47967953001732      0.56531070559271      0.98757307082081
  H   0.35926854517828     -0.82481063304651     -0.08939985181023
  H   1.60932254411336      2.44487876187329      0.29950065018868
  H   3.15843029843147      3.11635113512764      0.30984899479415
  H   5.08772712008187      2.00524312256618      0.07932101776652
  H   2.59040789567706     -3.26396016400822      0.15002300807494
  H   9.80892260483277     -1.32078660150940     -0.99135358937315
