27
Coordinates from ORCA-job 22031optt
  C   1.25865856931171      0.16576401685838      0.29844951666027
  C   2.70214030361808     -0.03110902665648     -0.17858840789993
  C   2.83345257216375     -1.13199444202098     -1.23678607756672
  C   2.37822639580128     -2.46812412292584     -0.72604866135682
  C   1.12802288452779     -2.98410744079674     -1.04190735335932
  C   0.69629691562282     -4.20751903277548     -0.54443169028306
  O   -0.51397397119239     -4.73311716771241     -0.83138682011697
  C   1.53786197584793     -4.94250941932285      0.29428172753966
  C   2.79721591879847     -4.44143570553122      0.62236040220785
  C   3.18761642264591     -3.22528971442113      0.11299420940164
  F   4.40469520533761     -2.74910948943404      0.43036539335533
  C   1.10859082533735     -6.20919939351073      0.80563492306690
  N   0.77931430213017     -7.22563668316434      1.22346708558600
  C   3.21598199215459      1.28054686771766     -0.74209489270700
  O   3.46891785189762      1.44958263382729     -1.90615713897114
  C   3.36495112697822      2.36337947728787      0.23069382259467
  C   3.48511551823583      3.22495813630789      1.05462192915697
  H   0.89074410657185     -0.74187355729857      0.77563989939601
  H   0.60907270015404      0.39898330341614     -0.54819923428382
  H   1.19130549906562      0.98110452016181      1.01782298831129
  H   3.32464112308795     -0.27260144595333      0.68910944616673
  H   3.87321059603576     -1.18991872038953     -1.56020630522231
  H   2.24413770884956     -0.85153447242743     -2.11068357023843
  H   0.47450454549878     -2.41542571496919     -1.69485139460141
  H   -1.00181350196919     -4.15298729068909     -1.42438007004862
  H   3.46188498353051     -5.00118310190377      1.26552244320116
  H   3.59922742995835      4.00035698632614      1.77575783001107
