34
Coordinates from ORCA-job 22032optt
  C   2.35058712353100     -0.92675819285614     -2.70457675416799
  C   3.14234483073401     -0.62693594756248     -1.45380264208357
  O   3.92307466514888      0.53463874369529     -1.69825697520415
  C   4.57113630446746      1.04007473924853     -0.54283272371416
  C   5.80488747773618      0.19502830731158     -0.20757102720077
  N   6.59612988852951     -0.02785329336355     -1.41657044808137
  C   4.88001458578770      2.49260987587404     -0.83066485992306
  C   4.20808488045359      3.55059292980868     -0.28033982252091
  C   3.12832712590632      3.45029607461610      0.76038336881963
  C   1.72668070731492      3.37241537213914      0.15748618029913
  N   1.55202276842841      2.11265219689615     -0.56772771112543
  C   4.53612559579712      4.88923735124940     -0.73834450919175
  O   3.98835011474706      5.91356648595055     -0.36392560618850
  C   5.62777514898619      4.89973019026993     -1.72255777417492
  F   6.01703936547295      6.07902998425448     -2.17444466875141
  N   6.24852115338160      3.88296042886445     -2.18187315010613
  N   5.86057293603400      2.69244435187903     -1.73846544287339
  H   1.75301286670672     -1.82771426050282     -2.56618208625577
  H   3.01604708337160     -1.07795454340809     -3.55456672723754
  H   1.68147662808058     -0.09729631927512     -2.93387321541836
  H   3.79354452195588     -1.47236113848636     -1.19750783324040
  H   2.47529985984755     -0.43178310871416     -0.60772218431094
  H   3.87644204018852      1.00492073135339      0.29850367998392
  H   5.47234502644491     -0.73495725089588      0.26656174796255
  H   6.41157797907273      0.73317095530125      0.52286441830533
  H   6.05203162562204     -0.55319678631628     -2.09195623411405
  H   7.44050294704834     -0.54753482054008     -1.21648739803938
  H   3.18767491286999      4.35335722961605      1.36950777646741
  H   3.28005035815550      2.59079248996951      1.41297850307683
  H   1.56105536455038      4.26057849875632     -0.46194230041302
  H   0.99829572433697      3.39638616097887      0.96946933181495
  H   2.14797694675576      2.09164408523563     -1.39056878693794
  H   0.59752562070680      2.02494685588972     -0.89557810607932
  H   6.38646582182872      1.88927162276287     -2.07341601937551
