32
Coordinates from ORCA-job 22059optt
  C   1.04981933823748     -0.66456775709440     -0.25103760941772
  C   2.35665497918533      0.05863175680367      0.08607590270462
  C   2.77259098725178      0.98601368036498     -1.02006996485290
  N   2.48470138765112      2.26924181565084     -0.89328009544823
  C   2.77038230196360      3.13658890975989     -1.85856664837421
  C   2.28977486443291      4.53300766996593     -1.56240890737486
  O   2.15672880677835      4.95053184587722     -0.44717582992445
  C   3.41749815447931      2.77805750296497     -3.05770859930309
  C   3.70387891679780      1.42704861216481     -3.16152237073430
  F   4.30977861697627      0.90519547694306     -4.24588678402333
  C   3.39003843479366      0.49615276936798     -2.17760203769467
  N   3.63583486255969     -0.84370535665615     -2.39389330234294
  C   3.74691365294949      3.79486946115920     -4.16462374296439
  C   4.86529956549933      3.35394444144873     -5.13427990259525
  C   2.47690052891936      4.05729190196535     -4.99926073427813
  C   4.23380757005795      5.04535070827413     -3.55952924060709
  C   4.67408645436998      6.06364545149061     -3.10774382907851
  H   0.76226312822980     -1.34424002878629      0.55098683285796
  H   1.14177312254782     -1.24000134128970     -1.17343061671655
  H   0.25043539176635      0.06395063128687     -0.38699093449926
  H   3.14738876232665     -0.66938754863208      0.29436255746518
  H   2.23239108724116      0.66077830937709      0.98449130900401
  H   2.01338939516758      5.15583525169714     -2.42605882425539
  H   4.30339463050047     -1.05988300299071     -3.11670752624687
  H   3.71452486904393     -1.42330295338280     -1.57450531408010
  H   4.52801842785560      2.55756164677056     -5.79230422320852
  H   5.74991533610693      3.02212333384472     -4.59315376362204
  H   5.13775305633785      4.21540371377224     -5.74268513824289
  H   2.15209412873011      3.12137622846967     -5.45604180255177
  H   2.69697578487088      4.77733269313739     -5.78778838453804
  H   1.66058072129825      4.44422435052813     -4.39257736601952
  H   5.04941273507313      6.96692982574688     -2.68908310903668
