30
Coordinates from ORCA-job 22055optt
  C   0.60419150877144     -2.48415107898635      1.61602238552307
  C   2.03675931772855     -2.23279464457576      2.04759135531750
  C   2.73514553896377     -1.21461339373592      1.18516436567414
  O   2.19496783496276     -0.65349274547565      0.26596827623900
  C   4.19975546824341     -0.88693175034787      1.48148537040241
  N   4.67377870639286     -1.55201593976260      2.66639831750726
  C   5.87308246591396     -1.90854229872192      2.85627116667003
  N   7.02749425987819     -1.52841831530216      2.12884674757413
  C   7.04860337457824     -0.18477679252863      1.52644380178146
  C   8.16859487925935     -2.27978377781062      2.22456029512886
  N   8.36920599692431     -3.20406081590899      3.09720738466361
  C   7.38533017395122     -3.42796147732783      4.03224645080448
  C   6.19617549611889     -2.81781891596597      3.94734698713074
  F   5.22688077659823     -3.05916358698550      4.81587166256810
  C   9.25428794328805     -2.06501865791381      1.17885828556202
  N   10.42564608728055     -2.64398564719919      1.50057008537682
  O   9.04795845945656     -1.44134454046007      0.16158062068144
  H   0.13487901594344     -3.22692707082892      2.26028601435771
  H   0.56617178052291     -2.84109914739078      0.58742252346321
  H   0.01981870666485     -1.56577365196444      1.66022593853957
  H   2.64169118625595     -3.14497130957481      2.03111251718396
  H   2.10959293140087     -1.88757367829831      3.08258114876691
  H   4.24120834128504      0.20289514697003      1.56386973224673
  H   4.76109882631336     -1.15910350748402      0.58039813887606
  H   6.36771943662767      0.43410919242069      2.10509831535410
  H   6.76089358353230     -0.19204776451814      0.48000624963989
  H   8.05083158899068      0.22222081817212      1.60528218263258
  H   7.59275659078657     -4.14221709460192      4.81755549430916
  H   10.46460135804852     -3.25942151881922      2.29676294673565
  H   11.15287836531726     -2.65321603507337      0.80596523928932
