34
Coordinates from ORCA-job 22069optt
  C   2.85921485860749     -1.34978399719259      1.41926325937329
  C   2.44366171889237     -1.49495971712467     -0.03982421848729
  C   0.95016718530737     -1.24079016595533     -0.21541942015938
  C   3.22255664817655     -0.53157835995600     -0.93323659495147
  N   4.66124670745276     -0.79057518905412     -0.95386486887303
  C   5.50192966098155     -0.04046620676553     -0.16413328650533
  C   6.97757133620859     -0.34423564140913     -0.27982641178014
  O   5.07568466442439      0.82197228001467      0.57309099973806
  C   5.12896640804440     -1.81369362536327     -1.81248271255846
  C   5.24575899067008     -1.61758006341067     -3.19722241617591
  C   4.91105207498594     -0.29628640262357     -3.82531783574108
  N   5.65942132093486     -2.58961951706881     -4.00228189996268
  C   5.97008082950415     -3.77492043128123     -3.49226059020926
  C   5.89526166837166     -4.07599262004468     -2.14140178514707
  O   6.20993583695341     -5.27441906030222     -1.59799595523098
  C   5.46181160420455     -3.05754854558788     -1.30230997378149
  F   5.38085531731802     -3.28796482031262      0.00376869740892
  H   2.30384709693433     -2.04826554348852      2.04698772677150
  H   2.66034385889284     -0.33448079799905      1.76877111143359
  H   3.92333541852549     -1.54210041774357      1.55375830265860
  H   2.66467951538647     -2.51622359624953     -0.37174501428248
  H   0.70113947942162     -0.21902747597252      0.08228006147769
  H   0.36410550574435     -1.91901172567480      0.40537909791091
  H   0.63822955506233     -1.37558689764870     -1.25290517573310
  H   3.08774562193756      0.49176444483200     -0.58085694711865
  H   2.85615961615389     -0.59650610804765     -1.96084561712106
  H   7.30422006444885     -0.33300497522257     -1.32029798615197
  H   7.19360050053477     -1.33318475158480      0.12775506305887
  H   7.51787165567574      0.40547462300751      0.28970175812295
  H   3.85181109978556     -0.25286420033562     -4.08938279459891
  H   5.48681859566517     -0.18500563576728     -4.74089905766604
  H   5.11847204133699      0.53390939916828     -3.15101828638701
  H   6.30867362770757     -4.53743305041512     -4.18952098674326
  H   6.48576991574830     -5.88601120742037     -2.28870624258833
