32
Coordinates from ORCA-job 22068optt
  C   0.63958552036827      1.26403029660807     -0.94773770685342
  C   1.95950168605602      1.34234586839417     -1.67315275045744
  O   2.96647068792910      0.80954482643438     -0.80547687307228
  C   4.19932794472081      0.73701779100796     -1.37117259385377
  C   5.01441863420027      1.81809128907797     -1.37820622618693
  F   4.54234981248151      2.93970416991355     -0.81310030731945
  C   6.31801499666591      1.84274422607961     -1.96029667969467
  C   6.71000205950961      0.67119237616736     -2.53065293812465
  N   5.93163882523500     -0.41913207311271     -2.52661929965044
  C   4.64913142150130     -0.52434986750137     -1.95875492807473
  N   4.09150127616587     -1.66201309866414     -2.04012962365323
  C   2.78412868166739     -1.95386081743074     -1.47837230700724
  C   2.50677005885669     -3.43700043484129     -1.64327528747945
  N   3.48110583146479     -4.19985649034966     -0.87307677424017
  C   7.27721119886566      2.97954797536336     -2.04113002727988
  N   6.93843486917532      4.13449031140767     -1.41956483896630
  O   8.32467944916942      2.86264838766436     -2.64873788670960
  H   -0.15718389415517      1.65870197423412     -1.57820479668659
  H   0.67811435851713      1.84542449012393     -0.02711761657219
  H   0.40747014859075      0.22937391966742     -0.69522884590190
  H   2.21761240631777      2.37467166609202     -1.92656828150424
  H   1.94288271183351      0.75721585157997     -2.59883990257384
  H   7.67819441247226      0.60082446603009     -3.00737935015062
  H   6.25598090323232     -1.27706388457553     -2.95039537812070
  H   1.99733227629259     -1.38894522493937     -1.99032539828582
  H   2.74252028102048     -1.70016977444382     -0.41633576874060
  H   2.51508791672378     -3.67284300703621     -2.71569408918155
  H   1.50762534337464     -3.65473345535241     -1.25970289725106
  H   4.41114640576134     -3.94998503037275     -1.19221209965914
  H   3.36632706677839     -5.19449022765196     -1.02058529222242
  H   6.09451576016911      4.24118471106430     -0.88833683658443
  H   7.60710094903808      4.88468878936164     -1.45861639794123
