27
Coordinates from ORCA-job 22070optt
  C   0.99426797017169     -0.00810633265604      0.33553367650947
  C   2.50091585630204      0.00050540958871      0.23243595663195
  C   3.17568887921314      1.16532711514272      0.11202765737438
  C   2.43042158704299      2.47906381189818     -0.03655583072072
  N   3.30936544558703      3.59582685823060     -0.35977929583143
  C   4.64306386071848      1.21431053695209      0.15008016241339
  N   5.34604173749805      0.70916261834021      1.32907918513342
  C   5.39377893463367     -0.09563194737723      0.12246588353116
  C   4.57728935208885     -1.31353182823169      0.01912368212221
  C   3.23743568034658     -1.26893664830743      0.15711528768676
  S   2.23330349342123     -2.72828491064736      0.13097339818545
  O   1.78171980732976     -2.97007827100955      1.46368972491133
  O   1.29259274495551     -2.60118694538988     -0.93328986719608
  N   3.19829449892265     -3.99039298952900     -0.27695411895419
  C   4.43275744048165     -3.97342868978319     -0.43933692676976
  F   5.04598578387805     -5.10498724828311     -0.75905677471139
  S   5.59865355854995     -2.69983263891451     -0.30316038124898
  H   0.63197640575442      0.93110432005705      0.74502645210365
  H   0.63987962516816     -0.80695468178852      0.98391602707778
  H   0.53674729544249     -0.16180292248953     -0.64297703940872
  H   1.84448987386690      2.64786391301704      0.87644485954674
  H   1.70569403176691      2.37802188529515     -0.84697928204243
  H   3.81117781792949      3.91632401805406      0.46054025113810
  H   2.76617536939765      4.37896785055726     -0.69826504800372
  H   5.11365783082869      2.07284843431694     -0.30526393816728
  H   4.67577689025107      0.31178727046176      1.98401255936824
  H   6.37084822845285     -0.13095798750475     -0.34684626067931
