30
Coordinates from ORCA-job 22072optt
  C   1.15114975120618     -0.45193845610185      0.23857109045654
  C   2.61917672143542     -0.12995747264470     -0.01172029152020
  C   3.14482080458403      0.89865481287826      0.97803163190844
  C   4.64527079310498      1.17736707678816      0.82047199972621
  C   4.97404919715821      1.72382917959141     -0.49760543708707
  C   5.21559691484860      2.17325477352522     -1.58033340141526
  N   5.11158249043402      2.07409882938680      1.86800432884778
  C   5.14092762775223      3.46913317017939      1.82220114941367
  C   5.46232690676395      3.90365619386307      3.05214624201806
  N   5.65491416818917      5.15166670207011      3.57983824020747
  C   5.94048251028955      5.20557912741724      4.81363436476477
  F   6.12607137136300      6.40539725140621      5.35554324254699
  C   6.08732443751393      4.09287217043636      5.72062360795936
  C   5.91207258885402      2.86707948582460      5.19434408314986
  N   5.61493340417405      2.75001834945435      3.87280389577220
  C   5.36353345880164      1.59490047303573      3.12775329430766
  N   5.33234701761818      0.35933197974880      3.45919181899437
  H   0.77503776509432     -1.18063631050429     -0.47926220449881
  H   0.53677786454151      0.44681358965449      0.15826165468000
  H   1.00995333308972     -0.86245352240320      1.24002379809257
  H   2.75333143756812      0.24253986151378     -1.02994452260600
  H   3.21595026088781     -1.04317013834625      0.06964384521129
  H   3.00060412368018      0.54221155435239      2.00091186702736
  H   2.60446599370041      1.84357918550301      0.86963476694705
  H   5.18862381902874      0.23957428424835      0.96495796044290
  H   5.43895847212262      2.56557088056947     -2.54391782097991
  H   4.97067394450389      4.01340053591500      0.91219529308668
  H   6.32427810044736      4.25435015249182      6.75895575088803
  H   5.99186464896616      1.95006026304677      5.76194780392402
  H   5.56590007227789      0.20421601709946      4.43209194773390
