27
Coordinates from ORCA-job 22071optt
  C   3.50097715095860      2.00624636533916     -1.88556692342299
  C   3.88771742963864      1.01846983557940     -0.82340342774956
  N   3.62161708875310      1.36404724188601      0.43799322827577
  C   3.93329228858138      0.51690248828293      1.40864075939474
  C   4.52043763921807     -0.70600916663331      1.15008853734922
  F   4.80344427651733     -1.52802441136209      2.17680014348477
  C   4.82204504126899     -1.10078671566702     -0.14014574504088
  C   5.43577649817076     -2.44163664461901     -0.41272604404747
  C   4.36331563352392     -3.55463170804117     -0.50205085932820
  C   3.45807251787336     -3.32010262838493     -1.63099003070328
  C   2.74364540171759     -3.11738497031428     -2.56948286820325
  C   5.01117190009785     -4.89977684071597     -0.61541527392659
  C   4.87088072136866     -6.03147019225367      0.10476057120057
  O   5.68131205708032     -6.95355430652625     -0.40514264143684
  N   6.34489093756483     -6.36463192127132     -1.47228099193970
  N   5.95070700096525     -5.18642636762580     -1.58206562216781
  C   4.48672366303118     -0.19749367229069     -1.14098295988120
  H   3.95458976523447      2.97511953909341     -1.67721833301926
  H   2.41936018509211      2.14678345945086     -1.88488947820646
  H   3.81102559432740      1.67327138456447     -2.87423075109550
  H   3.71415245077659      0.80405856556589      2.43124055581896
  H   6.12608486843821     -2.70675376639471      0.38842403439944
  H   5.99071231136796     -2.42265296264471     -1.35036397894676
  H   3.77684599111591     -3.54267867266241      0.42072675348152
  H   2.10254604768130     -2.94526822162072     -3.40092698859996
  H   4.26832708255416     -6.30824536162293      0.95219127827922
  H   4.69232845708192     -0.44937034911106     -2.17398294396848
