32
Coordinates from ORCA-job 22088optt
  C   1.56565148623274      0.41541558157790     -0.92756981475761
  C   2.80116429276263      0.51870465493470     -0.04777916248595
  O   2.45630350927251      0.07872329471765      1.24332182234279
  C   3.54946921724358     -0.27536852921690      2.06370816042313
  C   4.44594544504980      0.87207970620685      2.46833375062031
  C   3.94776926062830      2.05609450498915      3.03663623877219
  N   4.73210042916017      3.03004026828103      3.47928836986021
  C   6.04986448918721      2.90057574191723      3.35425003333663
  C   6.65628633841200      1.80867971399550      2.76235227309715
  C   5.81745279913020      0.80258824343273      2.32273608099916
  F   6.36926147646719     -0.26842565074015      1.73174860417425
  C   2.45089931594331      2.30904096313104      3.07455210363370
  N   2.02061165985419      3.24979539232271      4.09432463310376
  C   1.95284059380425      2.82144571043524      1.67780005584634
  N   2.97431377686867      2.92786699866735      0.65345665051669
  C   3.33282648203409      1.95210278691732     -0.06619193997881
  N   4.24385377273981      2.15953048185137     -1.08644230858944
  H   1.21311060708322     -0.61474156215005     -0.95224815946584
  H   1.80350793840868      0.74248120781528     -1.93904218319546
  H   0.77256992544569      1.05015098578546     -0.53417633178168
  H   3.58508361446111     -0.14180534418835     -0.44707306114889
  H   4.14505352512746     -1.05124296687754      1.57419976812635
  H   3.10263935306853     -0.71231602477523      2.95876859028519
  H   6.65301333905781      3.71578471251622      3.73799986287216
  H   7.72735544171634      1.72601803540177      2.64945348280790
  H   1.95052510101151      1.36004009196546      3.27007841693373
  H   2.57336518070209      4.09740421553636      4.00623367342071
  H   2.22666397107723      2.88193981331087      5.01678647082438
  H   1.57434445335168      3.82828749718742      1.84975757315848
  H   1.10768225190580      2.20063230758688      1.37531047006949
  H   4.67913999062389      3.06996795523614     -1.06421036378740
  H   4.86633096216824      1.40050921222856     -1.31236376003367
