32
Coordinates from ORCA-job 22084optt
  C   1.89718468543908      1.54462674145804     -0.27953992721562
  C   3.21279958856207      1.31330114427671      0.45667601317874
  C   3.17935507709125      1.27695859854453      1.93120664574157
  C   4.58770221447797      0.64781061504050      2.26153505762475
  N   5.50024531433960      0.35447938202453      1.09204964661494
  C   5.81653313678591      0.95249576142030     -0.12806328143244
  C   6.80633060326075      0.39623385452917     -0.92497500041874
  C   7.08253427050393      1.01646051968495     -2.13726316580402
  F   8.05394490809247      0.46951508119816     -2.87580163441519
  N   6.50851385692000      2.07258287617581     -2.62659901833161
  C   5.55084120582501      2.62926937128627     -1.86041109590992
  C   5.16570472341775      2.13669354827541     -0.64089747143903
  C   4.23009104380096      2.58349790906867      0.44339436553004
  C   5.40817622072635      3.07702701088913      1.49438009652682
  O   5.83421510799433      4.31667703790214      0.98791549274672
  C   3.18042759881074      3.51617351184646      1.06266851502937
  O   2.89292620155653      2.67070473196627      2.23507027467949
  H   1.49413464836901      0.57886926699390     -0.58475918612857
  H   2.05097045200278      2.13636470441871     -1.18506067717259
  H   1.14789119617053      2.03795627253053      0.33697381157886
  H   3.64938826414665      0.42613766210507      0.02787571913746
  H   2.39480064406089      0.71090088632370      2.43468233382381
  H   4.40491174906419     -0.33530228321349      2.69506012452547
  H   5.11500342926510      1.23230565880223      3.01656943385632
  H   6.06554134228489     -0.45910321433960      1.26964941547931
  H   7.36242345537718     -0.48545857991023     -0.63618918277191
  H   5.07601764295818      3.52055438055861     -2.25548873308074
  H   6.25515057591951      2.40475810043282      1.57085114005507
  H   5.00561433632510      3.27294587441575      2.48109039853771
  H   6.34280167459805      4.16816536728511      0.18271230007467
  H   2.27497877338772      3.70407078168152      0.49638394570241
  H   3.57584605846548      4.45732742632827      1.42830364367684
