32
Coordinates from ORCA-job 22087optt
  C   0.76271590214756      0.13894834169654      0.30731802901741
  C   2.29166570741383      0.05579649069723      0.23472574158174
  C   2.82985468978194     -1.13298117824788      1.07212415487524
  C   2.59895127022201     -2.43738585215711      0.38172222119257
  C   1.68822660809494     -3.38240906581796      0.71396222775299
  F   0.91961319126612     -3.27366615129755      1.81061325590123
  C   1.58736564507900     -4.54741444205255     -0.09460080121878
  N   2.18957711489757     -4.68603246214984     -1.23035818264110
  C   2.95339881793996     -3.62116293215849     -1.69018621577190
  N   3.30838423051264     -3.41415530351312     -2.90055114583755
  N   3.34299899450168     -2.69583062283199     -0.73217205089872
  N   2.77161944916504     -0.08817358942913     -1.14206012769580
  C   2.89369615459675      1.04537334156099     -2.04599383822559
  C   3.38289641633028      0.46701391029880     -3.37409037181285
  O   2.53744693987397     -0.57677486453418     -3.80474224597064
  C   2.84107499612721      1.35536836038265      0.81135080770500
  O   3.64935732613214      1.42468138241838      1.69039412672822
  H   0.32684329086263     -0.78797361971303     -0.07130581789440
  H   0.39524507220454      0.96350535503924     -0.30604550358574
  H   0.41633148864487      0.28560835588430      1.33194991658705
  H   2.35437988779414     -1.14132818548795      2.05139512234215
  H   3.90104885378434     -0.98514346693816      1.21730174919728
  H   0.96284563583895     -5.36677447391532      0.25389768843862
  H   3.01660972815714     -4.19375679898076     -3.48279739640072
  H   3.91212441693280     -1.93104266808512     -1.07758760838452
  H   2.16601629340543     -0.74828222744855     -1.62507736108323
  H   3.63482163835277      1.75569641736782     -1.67294872120685
  H   1.94700757713930      1.58165244683814     -2.19997445503818
  H   4.40823198346494      0.10831111328861     -3.24620183647613
  H   3.38448734599494      1.24803543505062     -4.13663816515794
  H   2.93723843745136     -1.44554562528110     -3.62133196320374
  H   2.40692489588918      2.27184257951649      0.36590876718490
