25
Coordinates from ORCA-job 22093optt
  C   1.04039409759882      0.19174264326785     -0.15731774237334
  C   2.52947858468326      0.07213854323463     -0.10016671075341
  N   3.08851510843966     -1.07630393701036     -0.06509411222375
  C   4.48108758882870     -1.23909674396171     -0.01256575217858
  N   5.05997212298124     -2.36860238202225      0.03809501591959
  C   5.25315500966616     -0.00649126951840     -0.01871636248916
  F   6.57317756433395     -0.11026257590907      0.01294506774348
  C   4.65661051240135      1.20280495224046     -0.05095900259094
  N   3.25248395636710      1.26109532265677     -0.08889574727512
  N   2.54290852231170      2.40546790403561     -0.11424703533941
  C   3.17967144327000      3.52526112128612     -0.10308237859273
  C   2.38611316100022      4.71882699722333     -0.12971479012400
  C   1.76865402412312      5.74490041428098     -0.15104476574017
  C   4.63258070793143      3.64845292086271     -0.06561313593457
  C   5.28442785191590      4.99303420564284     -0.05038731131746
  C   5.30838876150467      2.49404978679007     -0.04503382693570
  F   6.63289405732578      2.48171334224405     -0.01499627090107
  H   0.63114972072764     -0.81284955380616     -0.17013436208747
  H   0.73183562878223      0.73999905046141     -1.04678398884937
  H   0.66533097630606      0.74404365730944      0.70364988141119
  H   4.35294154290840     -3.10233762761326      0.03484233115099
  H   1.20248937052513      6.64625940587469     -0.17023505860038
  H   4.94706585642653      5.56513296785076      0.81528855842617
  H   5.00449530768676      5.55984188321445     -0.93956721594372
  H   6.36617852195416      4.89817897136502     -0.01426528440107
