29
Coordinates from ORCA-job 22097optt
  C   0.94513246823508     -0.31448780435363      0.10320189432299
  C   2.45430598340028     -0.13929305182536      0.04948494563706
  C   2.87114530401548      1.32281979615043      0.20793241330366
  C   2.43074897677933      2.18400223356042     -0.95668988608944
  O   2.08644394944105      1.71802484732901     -2.02409677818321
  N   2.47676316801390      3.53137895722346     -0.70387568306237
  C   2.15848984165133      4.61954159106755     -1.55068703047370
  N   1.73129674250449      4.28984565354649     -2.78179055303032
  O   2.27897009772583      5.74440554987265     -1.12320188215260
  N   3.04316698928449     -0.94766191207619      1.10960277684154
  C   4.33111928255950     -1.35443096682106      1.11332009352632
  N   5.18633728633196     -0.88546337124756      0.20869367044239
  C   6.44287671678601     -1.32916324073128      0.27228432290748
  N   6.94935370844276     -2.18554396002891      1.13701245971038
  C   6.09211941369736     -2.66584423901725      2.05267760256603
  C   4.78748892002744     -2.27795721715071      2.07151630152981
  F   3.91015087309418     -2.75632508523298      2.97060337412323
  H   0.46941709098914      0.25492772513849     -0.69198485110017
  H   0.55439660503461      0.03261966500070      1.06363131748642
  H   0.67764854263521     -1.36425611451296     -0.02096553418632
  H   2.83588189465083     -0.49491324238148     -0.90895116493179
  H   3.96214888699665      1.37855111116857      0.25918692873480
  H   2.47557682749309      1.72760968775144      1.14354034194413
  H   2.78355544055318      3.84134050497316      0.20584694444284
  H   1.68201707823374      3.32250079850321     -3.06505690338116
  H   1.51318293386543      5.04572214421804     -3.40601509967570
  H   2.42661587382758     -1.38192297342560      1.77708059521759
  H   7.12088901211513     -0.93491654418174     -0.47648533479462
  H   6.46476009161489     -3.37811054251692      2.78018471832471
