23
Coordinates from ORCA-job 22107optt
  C   1.32567782139334      1.56252610427269      1.59939323824112
  C   2.80250076940576      1.48134692606285      1.87572232581851
  O   3.28932688042348      1.74791985931615      2.95158420049455
  N   3.55421634649660      1.08000251544739      0.78734571658940
  C   4.93723663223550      0.85591781341925      0.66402238215779
  O   5.39004966080775      0.49023556435661     -0.38335167714121
  N   5.63317345875296      1.10209905060383      1.82791073060310
  C   6.97140714211899      0.91539857911453      2.06786168153107
  N   7.45403390141704      1.27853317776136      3.18884639607432
  C   8.80600968253042      1.06879709985428      3.47508438939184
  N   9.38648302625758      1.38871063582012      4.55036287057230
  C   9.56255421897404      0.41830674614956      2.39761341574980
  F   10.83794013769551      0.17020408059720      2.57859886099182
  C   8.95937757337843      0.08698348349580      1.25315697335768
  O   7.62611493634843      0.33056122819462      1.05370512027036
  C   9.61555080959511     -0.54604914303601      0.15578434165131
  N   10.15719386405912     -1.05764045864144     -0.71513342128553
  H   0.81333984326785      1.84723842168824      2.51277776069532
  H   0.95175888043199      0.59994352630655      1.24858333021945
  H   1.13283117986486      2.30537311326416      0.82380714266361
  H   3.07277816417097      0.88800756107296     -0.07913514851568
  H   5.09371975832364      1.45419742230239      2.61906496387456
  H   8.71872531205058      1.82838669257690      5.18339440599449
