29
Coordinates from ORCA-job 22104optt
  C   1.48737472662840     -0.66937708689274      1.06181829386592
  C   2.90320089822384     -0.27881369511448      0.67863676050658
  N   3.82080020159457     -0.63318565180505      1.74520295898139
  C   5.04175005670111     -0.28282082459172      1.64922893789608
  C   5.68468127796897      0.45436353267030      0.56615911500167
  C   6.98509271273256      0.75995051084261      0.61096264555362
  N   7.82626446450090      0.40456300822105      1.65648861221634
  C   9.17458764138846      0.66788674310891      1.47784387091103
  N   10.20154457573523      0.21017371992131      2.05630330065481
  C   10.19757388631623     -0.71170972248274      3.10286080408286
  N   11.06779318104620     -1.62120196294499      3.22449691539302
  C   9.17045075297297     -0.57983393966384      4.18958040340047
  C   9.67644971549210     -0.73160150940490      5.58682800471419
  N   7.93167182823794     -0.40100113679888      3.98652514152453
  C   7.26549106926107     -0.23818641814120      2.78861609573203
  C   5.95282642005130     -0.56982701883311      2.75031930451051
  F   5.41822634977113     -1.14988135131365      3.80755977647562
  H   0.78339869516287     -0.42311226711823      0.26607664249356
  H   1.18755328135101     -0.14462615518614      1.96896103233581
  H   1.43398969450279     -1.73929961236055      1.26102526473270
  H   2.94568473905922      0.79871665867756      0.47289165824600
  H   3.19279652226185     -0.78827385369650     -0.24946266280882
  H   5.10996682214751      0.76509919849441     -0.29311009860835
  H   7.47370243612422      1.29195189084963     -0.19325575185577
  H   9.33607640977301      1.37113490092886      0.66466650309880
  H   11.70715144456827     -1.60128427675696      2.42851935892431
  H   8.85296736774378     -0.64787075224374      6.28982720067000
  H   10.42908957315559      0.03280981804960      5.79290326633130
  H   10.17484325552667     -1.69674274641486      5.68352664501973
