36
Coordinates from ORCA-job 22109optt
  C   0.97055358348449      4.93968485347490      1.63115629890358
  C   2.41747968819772      5.11136690472623      1.18763729951308
  C   2.94972595850321      3.85677617574436      0.52913836329578
  O   4.29188235509769      4.08073693668165      0.15024689164822
  C   4.92517415378104      2.95906977635034     -0.42789255797818
  C   4.52946153626246      2.74904143151628     -1.88743471527626
  C   6.42088492932645      3.11324711698606     -0.28810983270514
  C   7.18422349461061      4.16828806560315     -0.59793059597600
  C   6.62061114773177      5.44144232143516     -1.15054467977532
  C   8.64867754558340      4.10318924756915     -0.39341186759326
  N   9.46707297083803      5.06103077780968     -0.60107718127793
  C   9.15830764955360      2.82004748533844      0.09784014691348
  C   10.63101430931410      2.58235704254233      0.26667960036239
  N   11.18065981281027      1.96455151001525     -0.94161608605117
  C   8.26675090850980      1.86535069552079      0.34582837416667
  F   8.58644813741493      0.66115775862332      0.79043773244113
  O   6.94725699076994      1.94182324323569      0.19605838232809
  H   0.59004644322266      5.85167089822666      2.08968886117261
  H   0.87552610048885      4.13469221093665      2.36204367509041
  H   0.32573052862443      4.69831291250295      0.78403068651657
  H   3.05425542276452      5.35480549134864      2.04035924127328
  H   2.50404104677053      5.93822181266939      0.47958592584271
  H   2.33661704192566      3.60306068914937     -0.34453152108814
  H   2.90071528964519      3.00848148042258      1.22562421241052
  H   4.65830628930786      2.06462197926002      0.14702776830830
  H   4.79642446893485      3.62270260333250     -2.48157671917824
  H   3.45794635764267      2.57324197085022     -1.97881109129396
  H   5.05088446452822      1.88118574235554     -2.29237492990904
  H   5.54344436944968      5.39840742455516     -1.26547077577414
  H   7.08038905106996      5.66266950167302     -2.11704484461358
  H   6.84866884552533      6.27394338946541     -0.48029519940226
  H   8.99106725533050      5.89396542647324     -0.93738842689414
  H   10.80376564248554      1.99464933713375      1.17418777878408
  H   11.09837416383743      3.55752825690205      0.39054132814518
  H   10.88778933950551      0.99710429688071     -1.01111174783020
  H   12.19282270715093      1.97357323268921     -0.91748979449912
