35
Coordinates from ORCA-job 22115optt
  C   1.19632750743139     -0.05694588331078      0.16553030971075
  C   2.71330645425674      0.10119766393233      0.12662930404713
  C   3.20049307179308      1.47660257211509     -0.33663740455050
  C   2.90329616940338      2.61288173748492      0.65855968242633
  C   2.84687172723571      3.87706873222187     -0.19368354681877
  N   2.43065741378132      3.36530262610897     -1.49833493305581
  C   2.61045813457261      2.01309017757509     -1.61947228076139
  C   2.31269140228382      1.38512169612461     -2.78740136947225
  N   2.52219899570275      0.00945317807157     -3.02209960568656
  C   1.83470434629398      2.23010107927757     -3.83135995021541
  F   1.52663656335823      1.59872144308845     -4.97519097972782
  C   1.68260184781326      3.57477625204602     -3.74892130532093
  C   1.22510124171555      4.43455034935863     -4.88807346284318
  C   2.37715828922602      5.24569530806490     -5.48473012694625
  N   3.39124711224751      4.35161611367899     -6.04219734332770
  C   2.00900658322525      4.22569899449646     -2.49417492555552
  O   1.93042913027180      5.43129619203979     -2.28447498938808
  H   0.92516528292764     -1.07381828376276      0.44926643120308
  H   0.74231146129928      0.15832906038207     -0.80459007135993
  H   0.73644032181535      0.61614061732411      0.88923589821075
  H   3.15582973911874     -0.66479357474891     -0.51196308797206
  H   3.12226140039996     -0.07197417874454      1.12572720582432
  H   4.28470420752895      1.41428770750486     -0.48904070981658
  H   3.64917933501364      2.67436975331448      1.44840673536142
  H   1.93064790850013      2.44678063997441      1.12403414102970
  H   3.81982398318558      4.36370241008169     -0.29401690913500
  H   2.13446161152091      4.62351846359059      0.14879950618063
  H   2.05929076768880     -0.58551494538273     -2.34793365219126
  H   2.22675357064736     -0.25201983625605     -3.95241245640141
  H   0.47260639557612      5.12989950290632     -4.51108692339398
  H   0.78251382664479      3.81443034542014     -5.66661152143478
  H   2.75960173933760      5.92434230677295     -4.71586028199992
  H   1.98179013123979      5.85412607743396     -6.29966735333963
  H   3.83729777075326      3.82408119450938     -5.29966846174864
  H   4.12113455618962      4.88288450730550     -6.50058556153071
