35
Coordinates from ORCA-job 22117optt
  C   0.97657709768790      1.00035497715316      0.47832612295183
  C   2.48941885255943      0.95462145345357      0.66506144509323
  C   3.00283923566943     -0.27925679469556      1.42555566215091
  C   2.40208410981651     -1.58430051947481      0.88627707959054
  C   2.80055326877508     -1.92376301809985     -0.54715764059389
  C   4.53733921546347     -0.29440003880568      1.42685079845448
  C   5.11109484644928     -1.49030839330855      2.18123348463644
  N   6.57021629246676     -1.46707018146262      2.11711253662115
  C   7.16571117731058     -0.22374795686254      2.25721483682999
  C   6.46128959969252      0.94073459689829      2.19743819164520
  N   5.05010107444066      0.91622993973770      2.06948845445279
  C   7.18546957688993      2.15417870452583      2.29134655166579
  C   8.52926174139646      2.16477727707738      2.43454208541152
  F   9.20272803923030      3.31415619224433      2.50315487188570
  C   9.31963955763642      0.95467354096009      2.50284136266660
  O   10.52779548164427      0.87420682796195      2.62099924657511
  N   8.52419804107944     -0.18382382945032      2.40924765918011
  H   0.66838002331375      1.96667314883842      0.07934976789666
  H   0.46221863947256      0.85318429804001      1.43052042371002
  H   0.62723969049405      0.23315981646282     -0.21293562161936
  H   2.78162067852153      1.85133467653157      1.21563264933667
  H   2.98115067545148      1.01252876362868     -0.31184319751142
  H   2.68791826489996     -0.17564185749212      2.47068197046822
  H   1.31552580052590     -1.51112396932846      0.95152607432261
  H   2.67064346165929     -2.41133725569318      1.54672357645694
  H   2.56013993795054     -1.10830827980895     -1.23205569488312
  H   2.27198206316040     -2.81179778722404     -0.89423522325570
  H   3.87010685087713     -2.12231668294158     -0.63611463198626
  H   4.89705392124698     -0.35930234220315      0.38919152313866
  H   4.77837170455958     -2.41919537703095      1.72168040658568
  H   4.74454253809883     -1.45567954925834      3.21358939190802
  H   7.01480363407125     -2.20470756481338      2.64496177040138
  H   4.72804964421601      1.74695353144139      1.59312854548322
  H   6.65873887473539      3.10129818053831      2.25149468291476
  H   9.04919638853684     -1.04798452753944      2.39917083741548
