31
Coordinates from ORCA-job 22110optt
  C   2.90514247042753      0.93978915685797      1.35978581061763
  C   2.48227076788765      0.33086975665707      0.02996174379185
  C   3.00667336989710      1.05101620887911     -1.22608388569278
  C   2.52262095163066      0.29299447244986     -2.46377243582817
  C   4.55549068406000      1.18070974914239     -1.23767904728504
  C   4.91422208669256      2.66123585248773     -0.92963622725803
  C   5.50116220112367      2.84992607569931      0.40110731593817
  N   5.97033326202957      2.97101970211235      1.44001726062408
  C   3.59358059693155      3.38283506464619     -1.07701540403468
  C   3.39813733455228      4.76496047888890     -1.05328395207874
  C   4.49035594970749      5.66390892500309     -0.87747606875296
  C   5.44187871255635      6.37512449982363     -0.71989374061822
  C   2.08745926611041      5.20953234727151     -1.20974204517295
  F   1.84856318078031      6.52309691928581     -1.19929783802826
  C   1.02280182457763      4.34229976903704     -1.37894043412778
  C   1.25344322746334      2.97370276735953     -1.39935762311592
  C   2.54886159299310      2.49434783106014     -1.24995548270268
  H   2.43019469794073      0.41252502012042      2.18701241343402
  H   2.61782632921046      1.99098251217565      1.42726007478781
  H   3.98347352401215      0.88200014668930      1.51204991339530
  H   1.38964184096012      0.31298457017408     -0.03220578931785
  H   2.81016609133455     -0.71213201510793     -0.02041661662225
  H   2.93712152217935     -0.71711208990496     -2.47494105049880
  H   2.82860686933502      0.80257225492885     -3.37878245920680
  H   1.43441985636859      0.20721036535757     -2.46842514446201
  H   4.93230463333159      0.93987714853764     -2.23139855114159
  H   5.02854604047674      0.49700842380261     -0.53404912125733
  H   5.64444135099775      3.05109495756200     -1.64276269532425
  H   6.27934600854281      7.01363821898648     -0.56829974281935
  H   0.03075046454604      4.75665295108537     -1.49606439909216
  H   0.42316329134278      2.29032795893122     -1.53171477815021
