29
Coordinates from ORCA-job 22121optt
  C   1.16809849891564     -0.22518456424570      0.39561682525375
  C   2.57465293910085      0.07004924467178     -0.11385937663329
  C   3.01260617614568      1.51300845626597     -0.23977461638460
  C   2.22856557902575      2.58930240999770     -0.02387639636319
  F   0.94257035357057      2.46123473083970      0.30726278427815
  C   2.66485815569033      3.99410831168561     -0.11722868910036
  O   1.89486758805586      4.92351207719717      0.11025107337142
  C   4.03637035177124      4.19249485626460     -0.48910204633852
  N   4.49780415750939      5.55485732297496     -0.59251962068962
  C   4.87376311440961      3.13296081093342     -0.74985889340376
  C   6.24754521830003      3.30816003664206     -1.12948542540199
  O   6.79633825891466      4.53128852380303     -1.25798117340172
  C   7.04547452845708      2.23245502767595     -1.37870115435466
  N   8.36251809435045      2.33489598381177     -1.82264721351456
  N   6.52592452874019      0.97175341911740     -1.27006772161237
  C   5.24975466178536      0.74399552997561     -0.90259608730662
  C   4.38914159483723      1.77298811441575     -0.62762243680989
  H   1.04278544484551     -1.30517187888166      0.47800388483861
  H   0.40431352767130      0.15655661047970     -0.27783089145815
  H   0.99792651021193      0.21347515803130      1.37722257044502
  H   2.70012231968614     -0.40490384286925     -1.09284454769561
  H   3.28775012524681     -0.42654720139144      0.55175741650335
  H   4.35454324837636      6.01876048816736      0.30182745575772
  H   3.88829591098791      6.05837947402711     -1.23305029569267
  H   6.06577742825376      5.18823536409543     -1.04506461408314
  H   8.61504841509413      3.30919832636862     -1.93477424657392
  H   9.03188370537276      1.87722057401439     -1.21536226739163
  H   7.10994949707083      0.20206600691291     -1.55703998427675
  H   4.96175006760257     -0.29414937098132     -0.85465431196100
