33
Coordinates from ORCA-job 22126optt
  C   0.98687678186172     -0.41886303996850     -0.13699435917718
  C   2.45469920040502     -0.22763726997149      0.22988875669784
  C   2.78456058443774      1.06966790424647      0.99401402610709
  C   2.48030404146092      2.28259804625016      0.10070381069731
  C   1.97296419778569      1.11968455582645      2.29854481330451
  C   4.28283799953349      1.02787791373527      1.31689123428431
  O   4.96340287698444      0.07579720826926      1.01291715971008
  C   5.00138809102638      2.16677754954787      2.00627577476059
  C   4.48143715272702      3.32147016201640      2.48859662988086
  C   5.34128382249060      4.29427308608511      3.08537512501369
  C   4.74565463812722      5.57468539270747      3.61709765799707
  O   3.69910968959051      6.05196724298464      2.79582924797035
  C   6.66490206468121      4.03668506520234      3.15352055294505
  F   7.51140740774348      4.91530090580882      3.68072672876618
  C   7.27773780832204      2.80294771763306      2.66375139934830
  O   8.46011489375962      2.54425440059036      2.71696758954166
  N   6.34529055601012      1.94450905074382      2.11620775000058
  H   0.86597135546865     -1.36132464107825     -0.67098670807770
  H   0.61324477746892      0.37040777784690     -0.78977514579631
  H   0.34546664192077     -0.46240562588208      0.74373745930911
  H   3.06405424613968     -0.25450795827291     -0.67602894668662
  H   2.78662474745715     -1.07286568142913      0.83491431775987
  H   1.42620126975606      2.27256903695657     -0.17497724524199
  H   3.06993598078706      2.24140015396930     -0.81743907013349
  H   2.68036058646354      3.23401068079015      0.58612179133008
  H   0.91485227890352      1.23245824083922      2.06261429231185
  H   2.25554236567105      1.94552040116837      2.94636378835004
  H   2.09908155701238      0.19214439095216      2.86007116703400
  H   3.43183301815732      3.54934091660096      2.42477411911285
  H   5.52587115821362      6.32454261686564      3.75692600870681
  H   4.29492057203090      5.38231439656609      4.59249211550486
  H   4.07159174741645      6.37411507475008      1.96933407183388
  H   6.69147589018562      1.06428432764938      1.74754408683444
