25
Coordinates from ORCA-job 22122optt
  C   2.60431176626988      0.40402640794154      1.43788846123978
  C   2.43656919039335     -0.03072456242506     -0.01829753481975
  N   3.06213141704631      0.86956612604573     -0.97908374639413
  C   3.04121456000099     -1.42669917748997     -0.27558859160673
  C   2.59307977820711     -2.52897847100467      0.64045164983262
  C   1.46199465839187     -3.30349524547402      0.36758746657127
  N   1.06785618843855     -4.28441196532622      1.16308892607826
  C   1.79111500173542     -4.52051699777585      2.23620376941381
  Cl  1.30737817179761     -5.79721085768659      3.27580988229208
  C   2.93017666102762     -3.76336060842806      2.52502400876981
  N   3.31754117143658     -2.77620294550725      1.72423668145180
  C   3.73361251448181     -4.02925373395087      3.69127026694823
  N   4.36999593264016     -4.24459529999413      4.61959825998763
  C   0.94752658183419     -0.02511904691502     -0.38016150300794
  F   0.21258686738875     -0.73255283319185      0.49073616536643
  F   0.45879121720434      1.22097721315924     -0.37517696014007
  F   0.71488325159851     -0.54008784211414     -1.58910581395122
  H   3.66550190579780      0.39080368855660      1.68897707283710
  H   2.08314081222918     -0.25594366069485      2.13030403706216
  H   2.22588603446076      1.41793171119345      1.57250411801474
  H   4.07017541523700      0.83652373362490     -0.88478017200325
  H   2.76918705444635      1.82731175837195     -0.82050479108075
  H   4.12065738271273     -1.32426636253299     -0.15447463885633
  H   2.84220293086802     -1.69316105378738     -1.31385645144149
  H   0.86248353435511     -3.11555997459445     -0.51565056256408
