35
Coordinates from ORCA-job 22131optt
  C   0.92681341972296      0.10713928309775     -0.31333886435924
  C   2.42107343204295      0.14521903496732     -0.28010367322642
  N   3.09234318077372      0.90222993912191     -1.13139715109136
  C   4.42369398401786      0.91125116647785     -1.05730001276910
  C   5.12207368008445      0.16948719004366     -0.11734744438731
  N   4.44822238273932     -0.60336288440061      0.74714887111999
  C   3.15650742445133     -0.60672234280978      0.64467557834065
  F   2.48458025836958     -1.39003518213006      1.48882515847923
  C   6.61893993382885      0.23521019886697      0.01652798171274
  C   6.95725376017864      1.17808741130290      1.17946917567666
  O   8.34278534882780      1.41925103967281      1.30261788355699
  C   7.23601961867087     -1.14792010593016      0.21869648448310
  C   6.96511427654065     -2.11718100472611     -0.92764527786776
  C   7.53173830040324     -1.63161013508259     -2.27940670441398
  C   8.16698211876418     -2.89063239179838     -2.88090247286923
  N   8.68594972636813     -3.64553792063100     -1.74143774414194
  C   7.65071387287191     -3.49654651548803     -0.71589669041138
  H   0.57320128977463      0.73884211179190     -1.12399636485767
  H   0.51191469831010      0.46317210913494      0.63111261062297
  H   0.56621361129661     -0.91186607445359     -0.45965947023673
  H   4.95215981003301      1.53355976211238     -1.77026940137920
  H   7.02309570635136      0.68390365429530     -0.89564320864392
  H   6.53882558350378      0.76714968826099      2.10535770087154
  H   6.49513367001915      2.15133192677602      1.00757292128635
  H   8.76422971688887      0.65271652970360      1.69964781034936
  H   6.85206377065611     -1.56680823181498      1.15364380532365
  H   8.32125814484218     -1.03600560166800      0.32254081903581
  H   5.88572753576085     -2.26179164612510     -1.00876351788634
  H   8.31198388846943     -0.88319606902902     -2.10856278864855
  H   6.77441691963569     -1.17938151010545     -2.92124788874132
  H   8.95438705490538     -2.68464102423930     -3.60458588162038
  H   7.40584052943538     -3.50016100711855     -3.37625263490999
  H   9.54210439397252     -3.20549797257846     -1.42074591825884
  H   8.08224310017545     -3.60053257249567      0.28022228933184
  H   6.92139585731284     -4.29912085300145     -0.84355597947022
