36
Coordinates from ORCA-job 22153optt
  C   3.45732661488763     -0.79639837478183      0.34454787832507
  C   2.29187550775874      0.03900116564786     -0.18509285008836
  C   2.73237021197254      1.34272104749976     -0.75920025886861
  C   2.36667772847059      2.57262182286249     -0.34971546446209
  N   1.51725076197796      2.70366956085819      0.77851072204853
  C   2.23158932631207      2.96791633770247      2.02803281935199
  C   2.83849152418214      3.76798825391475     -1.06364160618220
  N   2.55264896441852      4.98539803970927     -0.78417946375395
  C   3.71571359668480      3.51327748273183     -2.20844671761165
  N   4.20843314011247      4.59600156197148     -2.94022679271551
  C   3.87800512695697      4.64026672592806     -4.37509762617901
  C   2.38540737310988      4.84321315955578     -4.61019298719611
  C   4.70059778491999      5.74824337555155     -5.01194178489143
  N   6.11754274433436      5.42552190706884     -4.93843869821831
  C   4.05611802251326      2.24013975334565     -2.44486945509724
  F   4.90379997963417      1.86355427190187     -3.38096686762259
  O   3.59057652138658      1.16880786134275     -1.79861456305496
  H   3.09345521454236     -1.74850320243992      0.72905334727634
  H   3.97387846893069     -0.27708739872101      1.15263371140039
  H   4.18037232343790     -1.00053057730073     -0.44427298224842
  H   1.56584085639548      0.25002461017324      0.59652794657962
  H   1.77957947589367     -0.51388932954401     -0.97782663634940
  H   0.80823748907960      3.40680150669119      0.61041294282376
  H   2.81010263024096      2.08330816761513      2.29664757427917
  H   1.50697305532926      3.15172624063228      2.82024728450045
  H   2.91858032911607      3.81991197566538      1.96742165591551
  H   1.96786713613797      5.05774980342309      0.04470150345664
  H   3.87659119434464      5.44054275587981     -2.47782910503047
  H   4.20377692819765      3.69539726395160     -4.81346984701453
  H   2.06523307487413      5.80837339456722     -4.21090346587965
  H   1.80741150949927      4.06530094409751     -4.10858621776464
  H   2.14769029967218      4.81265293990835     -5.67481453873003
  H   4.43153158476130      6.69646147547170     -4.52053522136622
  H   4.41209408963977      5.83805105581178     -6.06146171842458
  H   6.36868967372549      5.24395062903792     -3.97299273956155
  H   6.68866973654886      6.19081379226863     -5.27241977764587
