33
Coordinates from ORCA-job 22161optt
  C   1.00586411318841      0.16754146626703      0.01772441916223
  C   2.52734509765983      0.14994353122164      0.00048706269703
  C   3.12131154762783      0.97256052576135      1.13948136987019
  O   2.74402357921514      0.39411172345549      2.36756641606916
  C   2.77333378446085      1.30250323380114      3.46004770211758
  C   2.40627436269017      0.54686452263885      4.71877031088828
  C   3.37558750600307     -0.57459529426271      5.08397651028794
  C   4.77360729334937     -0.07366178203488      5.41245430288746
  O   2.85209089335444     -1.33794859263387      6.15699657071514
  C   4.63012117762521      0.99469430587989      1.01054723656633
  N   5.22818974108972      1.82950957647878      0.25929956827528
  C   6.63626372049420      1.73544418423096      0.10805267348255
  O   7.23437005940146      2.50455064210585     -0.58243760745806
  N   7.31867000712514      0.69710882725733      0.79792992402225
  C   6.63119724603915     -0.06743649726481      1.51792424142473
  F   7.18634238670331     -1.05939707430316      2.19027132124360
  N   5.28850715843762      0.00276926767248      1.70019298311384
  H   0.60737722644157     -0.42947996677338     -0.80185477715677
  H   0.62904727858256      1.18558957863006     -0.09524763829438
  H   0.62376170201134     -0.23767758609376      0.95368434282385
  H   2.91173819375586      0.55781553545820     -0.93591677440694
  H   2.89852162851425     -0.87534325692551      0.08742016157955
  H   2.77238918600483      2.00811831837956      1.06890013928991
  H   2.05585260748075      2.10898111864316      3.27544237581374
  H   3.76826572488697      1.75876977445760      3.54363646896609
  H   1.41188397370853      0.11328631740580      4.59605722259464
  H   2.35620234937010      1.25915913209120      5.54920456444404
  H   3.42127981993109     -1.27886332505661      4.24922777099160
  H   4.73198796745089      0.64499696392675      6.23600154554326
  H   5.24419824105441      0.42567542364109      4.56384664754938
  H   5.40575920558214     -0.90800003354728      5.71371728630211
  H   2.82282301914391     -0.78772205619487      6.94715193844327
  H   4.77681220161577     -0.62586850431338      2.30544372015106
