29
Coordinates from ORCA-job 22166optt
  C   1.47735055880870     -1.17188384503195      0.18915612897777
  C   2.53402959312259     -0.16633757514298     -0.17073095838573
  N   2.79370218403160      0.92766806459766      0.45225745387286
  C   2.19329888989847      1.25436884398672      1.64687805500022
  C   2.17697693031501      0.50241788761551      2.75701738256967
  F   2.72779574751640     -0.72780827868112      2.69383167502140
  C   1.65621520649426      0.86185857082294      4.07788642994692
  N   1.69380753308674      0.08711272187918      5.08423195051992
  N   1.07823207347992      2.12922262265535      4.24661664409574
  C   0.99091706808444      3.00364219099974      3.33464714666473
  C   0.36234846035081      4.33713684526647      3.62308223091630
  S   1.54396774992005      2.88079140878669      1.66558832661330
  N   3.26251720607999     -0.41997743662151     -1.29106276578453
  C   4.31773258218878      0.46525688019181     -1.78646285129349
  C   4.78147566398395     -0.29579987755052     -3.04650575611023
  N   4.09288404209197     -1.59438742187593     -3.03153167170874
  C   3.27771095451131     -1.57712817432542     -2.06803399558330
  H   0.81099378011559     -0.76276250565161      0.94332481727827
  H   1.93547366215827     -2.07504826149179      0.59385604481035
  H   0.89405336796014     -1.43870755574559     -0.69122366014639
  H   2.13685604114134     -0.79494798293978      4.83586777177040
  H   0.01931778500177      4.34403952283313      4.65384447395545
  H   -0.47736154275855      4.51800964721955      2.95054498662042
  H   1.08972626087850      5.13658221931758      3.47216522008122
  H   5.09444537485362      0.57073709439271     -1.02839061131608
  H   3.90984404712662      1.45413844911710     -1.98778465490904
  H   5.85833025673118     -0.45603208052299     -3.06356887672264
  H   4.51342917882589      0.22858513285278     -3.96465876145887
  H   2.61992934400059     -2.39974710695373     -1.81984217529592
