28
Coordinates from ORCA-job 22164optt
  C   1.60220509985035      1.02776002495384      1.36822298554354
  C   3.00226883686058      0.94563667758319      0.82023590716638
  C   3.52433030769763     -0.33413075783868      0.21879347434658
  C   3.21685942240684      0.83518875339108     -0.64953263146262
  O   4.32653682386062      1.48889910669744     -1.22376381492704
  C   4.41675878115270      2.83179646576597     -1.01610409103373
  C   5.62120780812543      3.37190927967896     -0.60383093583214
  C   5.69657759441203      4.75207334001681     -0.43421324046077
  C   4.53137876162681      5.47770062294827     -0.68422046756156
  O   4.73955610260287      6.79713793917534     -0.47125608412402
  C   6.04633180740085      6.92673682096431     -0.08428249708285
  C   6.49785710029498      8.30841782624981      0.19819597890335
  C   6.67484891337140      5.73089420032949     -0.04108301155779
  N   3.37144561958348      5.00285740520000     -1.08048392139375
  C   3.34248878768508      3.70958169972367     -1.24548465795027
  F   2.18955277850731      3.19464031381617     -1.67646459192981
  H   1.55934486089145      0.66682858776687      2.39665877672047
  H   0.92355154160041      0.41541816364658      0.77184896648753
  H   1.23281921156129      2.05406877021765      1.34772199736143
  H   3.74849521904899      1.53875867847853      1.33716452800441
  H   2.86157509565208     -1.18784942292231      0.17175747554038
  H   4.57049613053374     -0.56328123009355      0.36271077841739
  H   2.34892813104299      0.79577051138407     -1.29457820527887
  H   6.45787241474999      2.70816094508463     -0.42927660689443
  H   6.39881104600355      8.93327762561769     -0.69065401878745
  H   7.53989301788949      8.30031214449239      0.50977553133605
  H   5.89421983739544      8.75528065991976      0.98944602835717
  H   7.70378894819155      5.57115484775196      0.23369634809244
