31
Coordinates from ORCA-job 22160optt
  C   2.27012024597268     -0.99707940285533     -2.28060613172602
  C   3.33849176450939     -1.48220344749427     -1.31773364433070
  N   2.76196269031190     -1.84377067155471     -0.00929136323499
  C   3.61937095072520     -1.48860115812698      0.85759523649369
  N   4.76537893144086     -0.88304661487186      0.39541414415822
  C   5.66955273632454     -0.11301317581375      1.21432737153124
  C   5.67706821860204      1.35411563920611      0.86564533963820
  N   6.46963758142361      2.13865420579464      1.59435145324026
  C   6.51040574194662      3.42341497966137      1.29770304360000
  C   5.74724315004027      3.90323558393120      0.23737766198697
  F   5.80372617916158      5.19941832968557     -0.05603079416703
  N   4.97899199463711      3.15862752153910     -0.49941893024891
  C   4.92455233554043      1.85702610082350     -0.19344982044439
  C   4.02358483519522      0.97374343023765     -1.00470676759318
  C   4.48924263311299     -0.48715751454433     -0.99405529456440
  C   5.72810128958445     -0.69632713918901     -1.86152561009990
  N   5.42169090330698     -0.46569888209933     -3.26758666912922
  H   1.57425445396696     -1.80980678049737     -2.48486939641105
  H   2.70413013347039     -0.65210710181275     -3.21978042329430
  H   1.69981025809328     -0.17781073165953     -1.84433233816579
  H   3.79655435537022     -2.39578586240962     -1.72344442284813
  H   3.50663730060894     -1.65846312112753      1.92398572042611
  H   6.69528752895455     -0.48431284388234      1.11699117362880
  H   5.39469880739990     -0.23211500295983      2.26414416764249
  H   7.14054088211069      4.08121519895825      1.88258168028016
  H   3.96490465277845      1.35350829037609     -2.02438353335259
  H   3.01991816847239      1.02753598147965     -0.57232737196638
  H   6.11466685766366     -1.70018244384713     -1.64741848726302
  H   6.50038147053569      0.01910959813794     -1.56354504431927
  H   4.90641143777990     -1.24604492786705     -3.65797107758530
  H   6.26768151095905     -0.36507803721836     -3.81263987188156
