31
Coordinates from ORCA-job 22178optt
  C   1.27969017603017     -1.09705912586868      0.15471240175564
  C   2.69269312865963     -1.48940652918248      0.57951220924252
  N   3.22316074499751     -0.82069753373623      1.73749238834594
  C   4.66654760214284     -1.20653093345892      1.45653580360367
  C   4.66259317436817     -2.59021965448961      0.55084497395895
  C   3.24002105632637     -2.99536761333458      1.03015580622426
  C   3.81445831736586     -3.54744203821490      2.47072912839200
  C   1.82286535315458     -3.57583104186589      1.23181857457126
  C   1.50830229487013     -2.58726838039675      2.44005838295486
  C   2.37455912802467     -1.42336235282073      2.75376243106058
  N   2.28983578210155     -0.85943102883391      3.91812042298181
  C   1.38283508278818     -1.29906854701916      4.81337996184902
  C   1.39936220576382     -0.61476612821716      6.13225999621167
  O   0.67087195678518     -0.86366397324062      7.05154778602734
  C   0.51701954939168     -2.31079579453859      4.45439838631876
  F   -0.42156436874285     -2.73208065216916      5.27916811399453
  N   0.59425533972058     -2.95223983700908      3.29890263237904
  H   1.32500074680009     -0.02784139420410     -0.06202372844055
  H   0.47959979850299     -1.25072471536589      0.87410825020763
  H   1.01453233422294     -1.60955343600951     -0.77036147624034
  H   3.27446623356122     -1.21282282234367     -0.29460230426057
  H   5.25590881967556     -1.29215701043898      2.36324381818036
  H   5.06481636141863     -0.38641285675828      0.86372200498275
  H   5.46295489880807     -3.25351060739141      0.86590831611942
  H   4.79406598152851     -2.36108484024688     -0.50289775282502
  H   4.31341863544471     -4.46348988060505      2.14855007837459
  H   3.07488344637753     -3.84735880856271      3.20585912303253
  H   4.54250743934656     -2.93438239562983      2.98908288958464
  H   1.75440941763975     -4.59205340886973      1.61671741416072
  H   1.11009310943739     -3.46295911021120      0.41965486624240
  H   2.17283625348789      0.17258245103374      6.18663910100956
