27
Coordinates from ORCA-job 22176optt
  C   1.52425605400877     -0.65355768007732      0.27976272647517
  C   2.96487825692867     -0.27023417273941      0.13301267166644
  N   3.87240160474022     -1.24977040027720      0.06224864471152
  C   5.13449784699655     -0.91102276513492     -0.07376337705480
  C   5.60876659538715      0.40122783265661     -0.13553789896368
  S   7.33779959130905      0.46402467479170     -0.27928849423882
  C   7.42184618328669     -1.33712263492286     -0.24491729972490
  O   8.44657376024706     -1.96205014582797     -0.28632764474864
  N   6.15342387880393     -1.84890972881593     -0.16665386343334
  C   5.90897814154549     -3.28145161504963     -0.14004969438101
  C   5.77142178356350     -3.79394898816228      1.28348887020949
  C   5.41556717744174     -5.25256016476456      1.32752585872860
  O   5.22986073016199     -5.92401814197386      0.35075632581978
  C   4.66285117694432      1.39269329179779     -0.06562981227613
  F   5.02120764362814      2.67940810131815     -0.12215383906595
  C   3.31311788402915      1.08393370943502      0.07450123002142
  N   2.35847391240624      2.09653485114680      0.08862807514379
  H   1.42612157919702     -1.73343970412731      0.21311410125787
  H   0.91866674377189     -0.18766312248470     -0.50126019189518
  H   1.12353674209347     -0.32848228490033      1.24484856264117
  H   6.74095608397980     -3.76636060075734     -0.64593495287408
  H   4.99647642521246     -3.47581958500087     -0.69986869516581
  H   4.98901712057229     -3.24365944122581      1.81728304576370
  H   6.69834677436995     -3.64514648081375      1.84647629956075
  H   5.32165452258346     -5.69384974766459      2.33801625234767
  H   2.72512043085899      3.01349418742805      0.29538213976021
  H   1.52718135593192      1.89175075614656      0.62134095971477
