27
Coordinates from ORCA-job 22173optt
  C   1.25087199679588      0.39464848187475     -0.42554172544671
  C   2.52857495568139     -0.35745888770621     -0.21020048079343
  N   3.27055528094343     -0.68804744255377     -1.25249160117766
  C   4.44445347277917     -1.31506849643710     -1.05333989148866
  C   4.96845426240040     -1.45410294384183      0.21226029034876
  O   6.23355341153606     -1.84945031910939      0.44926843156042
  C   4.04634562293235     -1.49982446482134      1.27790714081239
  N   4.44731492332293     -2.51423563913011      2.17627915691624
  C   4.27929121798519     -3.62958013640807      1.56726459830546
  C   3.17843107124036     -3.99992597408564      0.60079263476080
  N   5.22416385205609     -4.63462314052151      1.73136717307448
  C   5.99894204963985     -4.92211277721123      0.78928270228168
  S   6.36105662552449     -4.51752169702879     -0.94887536462653
  C   5.63946602449610     -3.31438539948055     -2.05896307929818
  C   5.02262955630400     -2.11943874825455     -2.13121864333319
  C   2.85792920161759     -0.84464212923709      1.07214699157314
  F   1.91229980568714     -0.85077506421875      2.02209014444502
  H   1.31052045284028      1.38963134198934      0.01933986374373
  H   0.41029773064952     -0.11816906974030      0.04295769726352
  H   1.07101253230729      0.49136276157040     -1.49300542410321
  H   6.73651739093659     -1.82001668065091     -0.37449569172463
  H   2.35265531077609     -3.29564501756499      0.63885276542352
  H   2.82213238176053     -4.99244078645418      0.87830851510481
  H   3.54985111714539     -4.06185459752932     -0.42420840381776
  H   6.73907457113531     -5.70950878002367      0.94448962559250
  H   5.89147842468830     -3.75907273372230     -3.01764377691922
  H   4.80512675681823     -1.77674165970287     -3.13762364847728
