32
Coordinates from ORCA-job 22183optt
  C   1.47401191548325      1.07098007513210      1.26778578332015
  C   2.31501609951652      0.27309487006771      0.27765997532474
  N   3.03688686619484     -0.85449703604614      0.86044258514184
  C   2.18723800371237     -1.87476638914671      1.45597126534382
  C   2.90753688198493     -3.20395240105112      1.56037155082333
  C   3.09674552710134     -3.84984408744202      0.18404851504555
  C   4.25777995836032     -3.02908060435092      2.21655528798878
  C   4.78608436035171     -4.09825075033935      2.83393855601436
  F   4.06053193465020     -5.23630573552367      2.91866168451185
  C   6.09796346024432     -4.23578701899437      3.42734672053110
  N   6.55281269550003     -5.20321403297020      4.10678427254988
  S   7.24214603676294     -2.94570341807661      3.05230644531263
  C   6.29811482236208     -1.68299976034542      2.30943246785570
  N   7.10058526185583     -0.60121018368648      2.01975409629632
  C   4.95470852332191     -1.76391792765604      2.05788897135083
  C   4.21103069680901     -0.57167001849129      1.54031525040419
  N   4.58082402288088      0.64964145509736      1.65640054329970
  H   0.99160375541001      1.90344098617182      0.75448008164655
  H   2.10302144579532      1.47154197542844      2.06071317450591
  H   0.68829780166865      0.45742065032480      1.71178399556026
  H   3.05068530480381      0.92367195635292     -0.18897615747525
  H   1.67779940491387     -0.14082882738063     -0.50776421945307
  H   1.30835643319440     -1.98772609198567      0.81865782856644
  H   1.83429185080629     -1.55984741898539      2.44679559602782
  H   2.30306058071917     -3.86839559979101      2.17826925096390
  H   3.69792308741340     -3.20469692742394     -0.45712623846107
  H   2.12738940005222     -4.00535709748060     -0.29220350890841
  H   3.59420255207328     -4.81456350592970      0.27705533500923
  H   5.84053538361187     -5.92260583343033      4.22166010691731
  H   8.09507346831571     -0.76351242511310      2.06572942606091
  H   6.81438294854723     -0.04093978658900      1.22792516099919
  H   5.41635951558219      0.74188090965461      2.21833619692550
