26
Coordinates from ORCA-job 2219optt
  Br  0.99382847947146      0.03653302814114     -1.03136575507793
  C   2.76804573137161     -0.11709565659529     -0.47042957002168
  C   3.37051982560070     -1.23830455222248     -0.08393796759101
  C   2.87470603800914     -2.65976262037920      0.08638705475751
  C   3.61859864907867     -3.44266107756422     -1.00142693190394
  C   4.29006861929234     -4.74265876639672     -0.68661575519580
  C   5.06229052922394     -3.46702293005697     -0.54345156069925
  C   5.05706300165293     -2.68856793349539      0.77730649526702
  C   3.66603078227555     -2.99083033111163      1.37532510324283
  C   3.40089948735550     -4.31339862676762      2.04339414306606
  O   2.31497446935255     -4.81689670968572      2.09582709270561
  C   4.78684799925437     -1.26950225913396      0.31349840673164
  N   5.65221364795129     -0.35218443801030      0.13652093327527
  N   5.18110124191509      0.78666079283647     -0.45489334523071
  S   3.65166343983445      1.38383465799402     -0.19079403493402
  O   3.43128696348769      2.36388347863563     -1.20259910448060
  O   3.45387074996194      1.72030881872002      1.18262165246458
  H   1.79702906439116     -2.78111181800457      0.13574785351064
  H   3.36512576519932     -3.21957291809472     -2.02799840172015
  H   4.55558688214169     -5.33604220215614     -1.55090012694805
  H   3.99975275557984     -5.34395760708231      0.16057755899922
  H   5.86596417992787     -3.25616418556858     -1.23432185289093
  H   5.92379668172008     -2.80277401944470      1.42227286132375
  H   3.43837311794184     -2.25187818009711      2.15290682130160
  H   4.26912505469614     -4.77649638295771      2.55407822218541
  H   5.87723684331276      1.51366243849809     -0.56372979213706
