29
Coordinates from ORCA-job 22192optt
  C   1.13543553580474      0.49570993484272     -0.18784076762926
  C   2.53257927813928     -0.10689147244814     -0.15788031525879
  C   2.45979831915828     -1.63210527256479     -0.09716701753892
  N   3.24789758738749      0.31764634447772     -1.35501199409090
  C   4.51636593229918      0.34863409971173     -1.32711682610323
  N   5.33721858016638      0.04350304769569     -0.26927658163856
  C   5.24278258761389      0.87044686640157     -2.55882558220426
  C   6.15659863387349     -0.14942507368965     -3.18641574078961
  N   7.19206232847040     -0.47796267737502     -2.48055982470196
  C   8.14505438045566     -1.39323050958213     -2.82711933505848
  O   8.99929343617919     -1.80999147173008     -2.10493650825782
  S   8.20360832784345     -2.02660193988839     -4.54177864585138
  C   6.72007280261320     -1.44526126438525     -5.15227560443844
  F   6.47998164912116     -1.84485369517251     -6.38613048676409
  C   5.82740738473561     -0.65367049625901     -4.50605803323873
  C   4.61054626757333     -0.30148237859961     -5.15890027701974
  C   3.58146818903879     -0.01498289862312     -5.70056332915229
  H   0.56889461669919      0.21172694900740      0.70063551853345
  H   0.60361890311792      0.14300118388392     -1.07280147786691
  H   1.18975916616281      1.58305597577067     -0.23581181378731
  H   3.03961742096366      0.26511286276189      0.74418119755623
  H   1.92321454070815     -2.00216763647134     -0.97215802779955
  H   1.92913317715630     -1.95797489354311      0.79890793985564
  H   3.45084543280942     -2.08974002041654     -0.09748923110639
  H   4.96407486422856     -0.51405791291574      0.47982322916493
  H   6.31338923748433     -0.10532663542609     -0.48026219519948
  H   5.87289465531151      1.70792581924669     -2.24845844643821
  H   4.48800434084869      1.21613609536870     -3.25550491506512
  H   2.66138242403573      0.23682706992182     -6.17220490811072
