29
Coordinates from ORCA-job 22193optt
  C   2.38588088411392     -0.94228714522974     -1.59340338825756
  C   1.94833179796473      0.41007015744965     -1.03161997616633
  C   3.08543035661431      1.13901612928086     -0.39169353237991
  N   3.61489043334795      2.16197792618842     -0.88332780032772
  C   4.53429097537791      3.01315390033856     -0.26602190243613
  C   5.88171839413667      3.04246498704751     -0.32762950492863
  C   6.54007979649379      4.26485635318398      0.12169446303450
  C   7.78635746476453      4.52926835749130     -0.27059081027897
  F   8.38015816956103      5.68656353793868      0.07078722932398
  C   8.55898469756858      3.63921794487141     -1.10352732428178
  C   8.05448799774449      2.43334919538696     -1.40185074745090
  C   6.75881227659179      1.99618313420224     -0.89271773357108
  C   6.52421838498605      0.66549017689118     -0.88327313760409
  N   5.50067144236909     -0.00255601273418     -0.22135380780010
  C   4.87885364015897      0.46565992031175      0.92906743803360
  N   5.48444967861847      0.74143469255544      1.98566974580179
  O   3.50001945938360      0.54029880825415      0.78642736652745
  H   1.54057915753903     -1.45559994071817     -2.04934410466188
  H   2.77790133215935     -1.58588682694422     -0.80419692865375
  H   3.14972441547427     -0.81003410093039     -2.36208340399349
  H   1.17610776789627      0.26145819854765     -0.27329408442817
  H   1.54610554914683      1.04690960635867     -1.81598788669162
  H   4.03901802052781      3.86171385563397      0.19754139839349
  H   5.98644564970980      4.99375593008882      0.69865713122742
  H   9.53506577601156      3.95881979838100     -1.44131917068862
  H   8.63411710482707      1.72433399298588     -1.98111928777112
  H   7.21387854157562      0.01187856561995     -1.40637368646680
  H   4.98915346300906     -0.69901394185361     -0.74278157482925
  H   4.84826737232738      1.14950279940227      2.66666502132566
