32
Coordinates from ORCA-job 22207optt
  C   0.98496569952308      0.00373518034111     -0.11403513780304
  C   2.49106330156164      0.02857182598328     -0.06117948924583
  O   3.12203926007269     -0.94701107364189      0.25685909909483
  C   3.22245232930876      1.29688147413351     -0.43297294444915
  C   2.68609630570223      2.51237393823120     -0.19454435391723
  F   1.49325212104919      2.64931709318671      0.39298560433861
  C   3.32740989812986      3.78513404150696     -0.47873014751105
  N   2.86842651754220      4.94226957081058     -0.16367133325616
  N   4.52846475998039      3.65104491174055     -1.15060165879042
  C   5.11205090818571      2.42665705138517     -1.34821562670827
  C   4.54089619439343      1.24514275654963     -1.02317548567449
  C   5.26899331301109     -0.03995911498419     -1.30135270575758
  C   5.18250058982850      4.88268104014373     -1.63376610327724
  C   6.13506177329702      5.45152459120522     -0.58858134802686
  O   5.52595087372665      5.68415232805813      0.65203085794065
  C   5.89760192948303      4.66977936548452     -2.96388289371297
  O   5.06989993827026      4.12568142341637     -3.96248745797221
  H   0.66479423499764     -1.03019211213877     -0.21598112689145
  H   0.59665802661926      0.61492131385176     -0.92728080644859
  H   0.58815578549068      0.40705435994782      0.81881618653901
  H   1.96417011173711      4.86262748788022      0.28722933567910
  H   6.09473323069193      2.45426053535855     -1.79774129584952
  H   6.17212986084487      0.17044278101616     -1.87335821020608
  H   4.65188720198026     -0.73269151328380     -1.87368439400779
  H   5.54381959011675     -0.55187280163115     -0.38116297845954
  H   4.36527677153293      5.58611340039261     -1.79785709238308
  H   6.56513667747474      6.37597918590222     -0.99456242797641
  H   6.95841945816277      4.74599712668752     -0.42910274340063
  H   4.56663451087418      5.77252167537872      0.52616482343368
  H   6.81113865827117      4.07787102690141     -2.83488369002987
  H   6.20930008267137      5.65005347123286     -3.32350444831787
  H   4.76362008546851      3.25493765895321     -3.68777000695255
