31
Coordinates from ORCA-job 22201optt
  C   1.58330990475674      0.23447795550221      1.02490691626950
  N   2.56948970496689     -0.03953567980464     -0.00277887160812
  C   2.95370399351301      1.10437705568516     -0.80781786471138
  C   4.21198745001866      0.86947425460025     -1.58063578710909
  C   4.66611408373054     -0.37015635230933     -1.79790591221243
  O   5.82401083095615     -0.62526587362596     -2.44025055907162
  C   6.63299191244956      0.38645252650302     -2.95077071209686
  N   7.70632956822110      0.10167657946783     -3.54637716509097
  C   6.15814705012455      1.74216667443862     -2.75284106834565
  C   5.01034902029482      1.94451428464539     -2.10012030664442
  F   4.54240393854308      3.17889951101471     -1.90230239420551
  C   3.91808570404574     -1.58481934122990     -1.37770811358098
  C   3.05646995154375     -2.16794582455001     -2.51759245610202
  C   3.85113913728392     -2.60936992631206     -3.73731121193764
  N   2.94475386926287     -3.21717141998347     -4.70473774937136
  C   2.99484888988177     -1.31711586029073     -0.19512129233729
  O   2.63452469988045     -2.24644299880701      0.49920772414001
  H   0.68982084361874      0.67696544412870      0.57826448693176
  H   1.98802627714288      0.93203801561282      1.76118882094683
  H   1.32168452898484     -0.69857334055716      1.51326897153853
  H   3.10540269371217      1.95163782014927     -0.13321959662162
  H   2.13066650244211      1.38697351261798     -1.47705320920224
  H   7.85835799717709     -0.90390360618592     -3.57961684573273
  H   6.75756622409629      2.55023426482259     -3.14161990804797
  H   4.62825974168831     -2.34605823486499     -1.04915353998572
  H   2.30909245862392     -1.43210620893844     -2.82608878086606
  H   2.51900840115341     -3.02355320286429     -2.10146204152043
  H   4.66686580710284     -3.27117966906852     -3.41601064974549
  H   4.31612335590997     -1.74511822355960     -4.21407152733310
  H   2.56332813837561     -4.08433880821264     -4.34513535493975
  H   3.42513732049815     -3.43623332802386     -5.56813400140615
