29
Coordinates from ORCA-job 22202optt
  C   1.04105889087859     -0.08736996275067      0.04491431488735
  C   2.56445757742138      0.01139285305418      0.01410462679548
  C   3.06910438531864     -0.59150875865464     -1.30525353498892
  C   4.53518232478396     -0.44697382758484     -1.58714636979826
  C   5.40961509194885     -1.45563905981077     -1.84621065368872
  O   5.20579918047976     -2.78455601989909     -1.83488800933783
  S   7.01310030440061     -0.94815284896912     -2.29062046480860
  C   6.52148863409296      0.69998868487999     -2.12923875494600
  C   5.18379516575533      0.82438558562766     -1.74079509135327
  C   4.65831734083388      2.11183767534246     -1.51947304711059
  C   3.27254766947507      2.31845895043178     -0.96432663489938
  C   3.00265232656364      1.47189339598904      0.29400690721716
  O   4.08107805128573      1.54208596299270      1.20571448622389
  C   5.51590640737366      3.17139315458224     -1.73571806453516
  N   6.79377112940668      3.05265916706940     -2.14232442962018
  C   7.26342008730607      1.85916190048422     -2.31627416923651
  F   8.53799810388698      1.73959373846464     -2.68931444798020
  H   0.70230577495288     -1.10206201478979     -0.17033746183523
  H   0.59869847781697      0.57642924654473     -0.70357568678154
  H   0.65154166776606      0.20133395176556      1.02129555725584
  H   2.97511716175833     -0.57464771013467      0.84035638588642
  H   2.51399788305984     -0.13646453182038     -2.13309528921474
  H   2.77887420441978     -1.64686196043520     -1.31825791059768
  H   4.29916806119705     -2.97366403779301     -1.56614582585295
  H   2.50630238359871      2.09920110534730     -1.71358464498211
  H   3.16604439914266      3.37170981121447     -0.70242693359238
  H   2.17815468072895      1.94667309142126      0.82941823599557
  H   4.90112242149780      1.30810597760522      0.75601278211593
  H   5.17238021284909      4.18559647982529     -1.56481587121736
