31
Coordinates from ORCA-job 22203optt
  C   0.86831712146669      0.10525304271735      0.06061382673696
  C   2.38635955761810      0.07119260985700     -0.07646563995718
  C   2.79423678923630      0.24906606310565     -1.53915695981626
  C   3.05624648227520      1.14813611438536      0.78058284505685
  O   4.34055536526819      0.63571034200743      1.13414586240858
  C   4.25582712941541     -0.76742851746285      1.27696039724056
  C   2.98300946070811     -1.22073136257114      0.52866949163296
  C   4.21453147469401     -1.15842233750248      2.77846341842761
  C   5.49243814525603     -0.76726102072959      3.54031687951119
  C   5.29980390805445     -0.91140677009706      4.98338824764435
  N   5.10604281164780     -1.02884599265587      6.10645683070104
  C   3.02306681140535     -0.45673199358165      3.41819690056938
  O   1.91906980696766     -0.91832978016031      3.45016354449664
  C   5.51108046135959     -1.34551078420718      0.60845255318820
  F   6.63318584960280     -0.74374570599899      1.01086487623780
  F   5.62940428371643     -2.65069348077515      0.89375229039576
  F   5.46934105287649     -1.23018841085653     -0.71855910819824
  H   0.46994769660855      1.06120883862609     -0.28554409532185
  H   0.56456965162227     -0.04243555689842      1.09856665760770
  H   0.41333468392524     -0.68162245134204     -0.54359775479673
  H   2.34044309873321      1.15433624040874     -1.94729650068506
  H   2.45805293012186     -0.59820632093207     -2.13941542681408
  H   3.87558207362769      0.33326374019347     -1.64252931228631
  H   2.47145620269218      1.35594924075173      1.68370122868425
  H   3.21552713444050      2.08441889005435      0.24674765807585
  H   2.28457540166024     -1.67447029715038      1.22917968510147
  H   3.21304190835556     -1.95639162293932     -0.24064129923206
  H   4.03919630445316     -2.23255873048948      2.85297546808789
  H   5.75392109399047      0.27054854621332      3.32222286483714
  H   6.33518686947593     -1.38916370515327      3.24454807009669
  H   3.23664843872447      0.53706117318330      3.85623650036886
