33
Coordinates from ORCA-job 22209optt
  C   2.92559299518189     -0.71243180086208     -1.55577581659325
  C   2.50014797910137     -0.12901012103059     -0.21169303715990
  C   2.90736176270601      1.32945884311917      0.03612295380832
  C   2.55554085867184      2.17139223612437     -1.19401845576606
  C   2.18392869436964      1.86675096674167      1.28611014402110
  N   0.75629212112279      2.02302437784955      1.03312479627784
  N   4.38367305704615      1.42105020578980      0.30509359827287
  C   5.05362076376189      2.62461815406557      0.30778158020330
  O   4.55156053253314      3.70661750851236      0.15207776130066
  C   5.15074361098415      0.29626790108316      0.64444539635468
  C   6.07423065755762     -0.26728257381334     -0.16040371772325
  F   6.27490173902666      0.19551423354262     -1.39526583967197
  N   6.83815702844365     -1.31871932161036      0.20978301657249
  C   6.67449444817032     -1.82916530805897      1.37610412299911
  C   5.70463172503192     -1.33978753197778      2.36655526665738
  N   5.46929916021486     -1.79475176470121      3.53375355102647
  N   5.01106108712645     -0.23344095210533      1.90505696871108
  H   2.70316194954684     -1.77891915463231     -1.58790150275426
  H   3.99162877145675     -0.58789231933229     -1.74630963341890
  H   2.38896205891475     -0.23948620464116     -2.37757506092104
  H   2.86160769560720     -0.75765696801420      0.60531257468167
  H   1.41138587534368     -0.13662144436094     -0.13712546432803
  H   1.55890866292969      1.88978534924304     -1.53446871929058
  H   3.26198987237898      1.97864731878434     -2.00129608680365
  H   2.57705306803358      3.23519432241842     -0.97330098185103
  H   2.67614025550256      2.79504347165455      1.59276218285642
  H   2.29998343654033      1.13651835929429      2.09309244240548
  H   0.58509171407495      2.85144805789510      0.47582668462112
  H   0.24798414460635      2.13806789738724      1.90002741331075
  H   6.13332695964720      2.48987374449334      0.48156612534741
  H   7.28934580847723     -2.67789123228579      1.66010425294747
  H   6.06018539375839     -2.59429484228288      3.73913017709050
  H   4.35700611213109      0.19607859171064      2.54530330681579
