25
Coordinates from ORCA-job 22213optt
  C   0.83870553314100      0.02379058994524      0.42100191852217
  C   2.30632820790888      0.01524130068529      0.13568889132004
  C   3.04685786701454      1.11695840511132     -0.19976880536197
  C   2.42202708175455      2.45404610214500     -0.28937622108601
  O   1.25484069888305      2.63330340484260     -0.51904923018659
  C   3.26857247675957      3.63193895726204      0.00362212094929
  N   3.83072661146080      4.58644176965414      0.29422157515201
  C   4.47056647482415      1.01651067033079     -0.50535726820057
  O   5.17194159727636      1.88274400058418     -0.92757326270853
  O   5.04242076961357     -0.22791525157705     -0.29022092224782
  C   4.33399531170698     -1.31316902177171      0.04832632057205
  C   5.17198146060466     -2.55372665623598      0.15630155858486
  N   5.84935331156883     -2.87605124186763     -1.07902583888726
  C   5.16221098379660     -3.49235429648899     -2.10677792967661
  N   5.47021300243336     -3.56517877240171     -3.32956997418595
  C   3.00589888714033     -1.22571527448451      0.23531063566132
  F   2.31354995854675     -2.32822348362999      0.55792044215625
  H   0.28805706810432      0.04939315849969     -0.52130400886381
  H   0.55135918653068      0.91800941070756      0.96901358480571
  H   0.55217938687751     -0.86791691171863      0.97082794089051
  H   4.54021562520872     -3.38942653853277      0.45160689528947
  H   5.91460245587514     -2.40002497024454      0.94156336964174
  H   6.59247155862800     -2.24752609519484     -1.35053819628321
  H   4.25929674778506     -3.99965494449814     -1.76077773038395
  H   6.32662773655644     -3.05349431112135     -3.54506586547312
