33
Coordinates from ORCA-job 22218optt
  C   1.32383842371755      0.80768405726944     -0.31540318832314
  C   2.67549307094318      0.19709366122486      0.05730877646482
  C   3.89930583657586      0.85025313152698     -0.58385426492687
  N   2.82617399960427      0.05505135344387      1.52688100811550
  C   2.92346053300187      1.22513268319837      2.28584832752183
  N   2.86523458796044      2.44540865219817      1.90486495984012
  C   3.12788728958932      1.00697461675621      3.71774332876168
  N   3.17753490096036     -0.13777148145218      4.28103288383512
  C   3.03012618830533     -1.22824995601355      3.49167690344814
  F   3.06787835617470     -2.36871320892510      4.19264012568456
  C   2.86008335386378     -1.20467735180098      2.15030662418933
  C   2.68995372537643     -2.46038030243190      1.29560858429659
  C   2.69663384108392     -3.79163118332020      2.05202055636475
  O   1.45681938174472     -2.37243772502564      0.57682324983680
  C   3.83865619277791     -2.57030708941388      0.27319199279070
  N   3.47480999355771     -3.15102843909128     -0.90285877567043
  N   5.04468134454314     -2.25205399018483      0.50987298030533
  H   1.23601554507150      0.82253259376926     -1.40232780028304
  H   1.16973136136799      1.82039144057672      0.04924416564006
  H   0.52574653038787      0.18044113077118      0.08087277738665
  H   2.63769785510849     -0.80085764035083     -0.34985093820919
  H   4.10706655690987      1.85814522353469     -0.23401502851701
  H   3.74269044946899      0.89137038978721     -1.66252615843389
  H   4.77754846854833      0.23378128920758     -0.39070761694753
  H   2.72292892042153      2.56747995044698      0.91344183516440
  H   3.23562555891371      1.90602468648409      4.31406288801452
  H   1.88448708739287     -3.83584004796443      2.77685391857767
  H   3.63651484353694     -3.95826087829892      2.57010328344955
  H   2.55838643901322     -4.57399356044851      1.30655828997691
  H   0.74476549003464     -2.62795271014149      1.17291137168281
  H   2.50224228214833     -3.19231946151556     -1.15124605485820
  H   4.17343256105395     -3.19959310111062     -1.62479319126268
  H   5.15254903084116     -1.86669673270570      1.44471418608415
