27
Coordinates from ORCA-job 22224optt
  C   1.31166641594750     -0.94178632058694     -0.98600503667575
  C   2.64232112162056     -0.62272666477413     -0.36984434862183
  C   2.98870913476358      0.63210200614378     -0.08288194081186
  S   4.50063528363206      1.02171941941854      0.69041484193341
  O   4.98712351499782      2.27126539990435      0.18922366916030
  O   4.41008656571171      0.79489491690025      2.10176826605395
  C   5.46593172011230     -0.27400332016682     -0.02601432307793
  F   6.72769032476289      0.03352345911376     -0.29968501305093
  C   4.95633912049415     -1.45785306219557     -0.34630323257881
  C   5.84652396465951     -2.47366334366507     -1.03474381110351
  C   5.14195779227531     -3.70783524974131     -1.58664783655685
  C   4.67623731869957     -4.62732084778636     -0.48313207129376
  O   4.73978121232419     -5.82164486023035     -0.55379587948656
  C   4.12694002351563     -3.93302270277396      0.75609373901639
  C   3.09648620239634     -2.87934013729330      0.41403453931734
  O   1.93090435793189     -3.04735326825530      0.64528471426917
  N   3.56786461415156     -1.68616412775786     -0.16934608220383
  H   0.92642892585455     -0.04702881033936     -1.47124091932697
  H   0.60402944625319     -1.27591305214625     -0.23176871046635
  H   1.40843046104612     -1.73818273495768     -1.72309587660172
  H   2.36270321219464      1.48085757536111     -0.31974141708312
  H   6.64204158733063     -2.77467297258385     -0.34827359855485
  H   6.34679117859261     -1.94962540098952     -1.85091372600526
  H   4.26580166740057     -3.41566415023057     -2.17488032824075
  H   5.80336036062747     -4.27162850945734     -2.24157187440814
  H   4.96251333316037     -3.47320861845266      1.29206794460142
  H   3.64770113954321     -4.66872462245752      1.39399831179678
