22
Coordinates from ORCA-job 22229optt
  C   0.89220628566210     -0.05363730549695     -0.00059318926705
  C   2.39037018461679      0.01837718065679      0.07789816289172
  C   3.17868664947593     -1.08909510280690      0.08127988922038
  C   2.79220897121152     -2.46437255932434      0.02029935415020
  C   3.95007042070823     -3.20232510739782      0.04320975227670
  O   4.12405506491459     -4.53545197002699     -0.00610309567411
  C   5.08382635530139     -2.33379938440933      0.12762047324509
  O   6.37802397903615     -2.79612421814125      0.19598407338157
  C   7.10446636475322     -2.75370727996080     -0.94247864205309
  O   6.72804257652181     -2.34285693391686     -1.99178737490676
  C   4.64521569396285     -1.04260420020299      0.14352421983125
  C   5.32645226996304      0.19181719830587      0.17515154213132
  F   6.66544373441141      0.15205239912727      0.20432283432034
  C   4.72348216470077      1.39680809567341      0.17883012568205
  S   3.02458781917692      1.60447846598250      0.13891950235781
  H   0.51135620061260     -0.74402849110755      0.75224818596117
  H   0.58697797221836     -0.41919207580069     -0.98238516169640
  H   0.43141706274924      0.92002187966240      0.15976429970349
  H   1.78421398351350     -2.84358017789013     -0.03856194219215
  H   3.27278912489093     -4.97332191337799     -0.10483172942262
  H   8.10013446357997     -3.16124991969865     -0.73858479707926
  H   5.30197265801862      2.30879142015104      0.20427351713835
