26
Coordinates from ORCA-job 22221optt
  C   1.76484568448213      1.13649204418893      0.94181978136649
  C   3.02527802595212      0.62773382899464      0.30522758707981
  C   3.71415812479836      1.40574567883948     -0.65104872137107
  N   3.22676410120878      2.65867639054634     -1.04271274332075
  C   3.29733870323559      3.66693169301835     -0.26843433200660
  S   2.52343395102602      5.11966307994095     -0.93662895478955
  C   2.82411068385370      6.30738127213265      0.28146181369443
  F   2.33384472453322      7.49372589734995     -0.06633937826030
  C   3.46151600435054      6.13328610858809      1.44288268963599
  C   3.99486071538895      4.85038124532497      1.79759212196189
  C   3.92646259426026      3.74138858890326      1.03658417846409
  C   4.84253844850471      0.85673566706225     -1.25789914248187
  C   5.58782561020216      1.59905057972892     -2.30945448584758
  O   6.62985062445325      1.21190637973822     -2.76857523436403
  C   5.26864901996226     -0.40978948238007     -0.87157112270189
  C   4.54766816210526     -1.08265123562543      0.09208817096025
  N   3.45076964600178     -0.57667706063771      0.65992234701395
  H   1.97289333669383      1.93800929060931      1.65511153744258
  H   1.28156602938703      0.31944468870550      1.47058696234372
  H   1.08753242236266      1.54256334234783      0.18881746186040
  H   3.57035132092901      6.98088384275795      2.10452316167208
  H   4.49888272792118      4.77770952514598      2.75328767934918
  H   4.37450501454595      2.82028206856022      1.38853593755843
  H   5.12140551922265      2.53386616999242     -2.65996641259816
  H   6.14814977425140     -0.83794856399698     -1.33353054476923
  H   4.84779903036715     -2.06879103983604      0.42571964210775
