26
Coordinates from ORCA-job 22231optt
  C   0.99363164884284      0.04255231652346     -0.16333468491549
  C   2.44113352776297      0.18621200383292      0.17786300692529
  C   3.29290364405927      1.18674418997748     -0.21732184898838
  O   3.09929340978434      2.27161672072806     -0.99060112754569
  N   4.52028932818898      0.92321203574386      0.29219411321398
  N   4.51415354971789     -0.21546929472628      1.02738581482931
  C   3.27671602283041     -0.65176824311629      0.95269956686782
  C   5.67232556331975      1.73574533635909      0.21554278521874
  N   5.50820308677719      3.01885915801668      0.51344421211500
  C   6.53526309657419      3.84641011607878      0.45683213987713
  N   6.35423981813491      5.16817908069123      0.80949611931264
  C   7.79298071703425      3.36856751761783      0.10552163435280
  F   8.85206060999601      4.20389147762460      0.04741207539756
  C   7.98014010269285      2.04192183137318     -0.20158107535159
  O   9.17559740861173      1.52751462904320     -0.57217397725659
  C   6.88498693326293      1.17652274291525     -0.16077052367688
  O   7.01109226538556     -0.12193602480539     -0.51216416827578
  H   0.45893237496013      0.99039673028260     -0.06019592203192
  H   0.51465819797304     -0.66722904752828      0.51017599970186
  H   0.84010663615530     -0.32009909859685     -1.18278622785365
  H   2.20445523475778      2.23772209733880     -1.34457917720233
  H   3.00094510033721     -1.56034845379304      1.46669136858457
  H   5.39060276808269      5.46281115577408      0.78197986714608
  H   7.00942707655740      5.82828270572501      0.42313110660572
  H   9.84826012339077      2.21877043299589     -0.56854888514848
  H   7.93160175480948     -0.29308211607591     -0.74631219190173
