24
Coordinates from ORCA-job 22246optt
  C   3.72619652768241     -1.23161235719977     -0.87551894449676
  C   2.81504267720530     -0.13718165157893     -0.38086188276458
  O   1.67128890274521     -0.34629390505358     -0.04558498339230
  C   3.35018210576492      1.23861159127802     -0.37159207842886
  C   2.73855442969284      2.35301759794855      0.13683443490649
  N   1.68811854355160      2.43174930106566      0.98792783348763
  C   1.31390210339894      1.63111480279029      2.05044184234309
  C   1.74230579006237      0.44230289981680      2.54147417200280
  O   1.02866033698611      0.20194030960125      3.68073108603133
  C   0.21397458190941      1.25336044809481      3.80902104826693
  N   0.33213768666468      2.13596292614275      2.88452711873507
  C   3.20003715468648      3.70306577761334     -0.29362538857236
  O   2.61420981208011      4.71215256765308      0.04116479817779
  C   4.38786191903339      3.67547019770027     -1.11486365794008
  F   4.90226797730778      4.83513186916366     -1.50872565422959
  C   4.98755851513578      2.52329814705168     -1.45122267736300
  O   4.50145811757085      1.33592700507827     -1.10641492408964
  H   3.21838907488028     -2.18401855228451     -0.75240937482312
  H   4.67070224660408     -1.22704488183233     -0.32975284129085
  H   3.96326538453506     -1.07409633459706     -1.92841662626227
  H   1.34563949414300      3.38577040363410      1.07534013112625
  H   2.44627316000745     -0.30737780368365      2.24639524254430
  H   -0.44815786999333      1.26559967893290      4.65873131828588
  H   5.89513132834526      2.47214996266439     -2.03559999225415
