30
Coordinates from ORCA-job 22268optt
  C   3.50152083169956     -1.04588228355711      0.08856856119603
  C   2.40657508423614     -0.00770249498318     -0.15422917215365
  N   1.12252884994253     -0.61676806907267     -0.50606123973040
  C   2.17940041371828      0.84345957328538      1.09909976467533
  O   1.66139361415516     -0.00582370689468      2.11111944487921
  C   2.83994084300621      0.98752957073035     -1.24043361938047
  N   1.92980005738854      1.22187714041436     -2.20706538909037
  N   4.02355113398927      1.47754076312319     -1.12809973112509
  C   4.55105604037017      2.42425164298823     -1.98288888645051
  C   5.82987255805548      2.31090222983096     -2.42403096798042
  F   6.55012731156671      1.23442892487107     -2.11442043355146
  C   6.48903935866596      3.28273611263216     -3.24280431086066
  N   7.82455949329674      3.07804927191231     -3.58940895531650
  C   5.76589557535395      4.36841554955809     -3.56443152577597
  O   4.49793791080561      4.54278351257338     -3.12929175769806
  C   3.83839393209788      3.65608516058375     -2.33658135516289
  O   2.71888398964036      3.93441605469623     -1.98207863795093
  H   3.21248659769018     -1.68536774835214      0.92217377624295
  H   4.45124945090190     -0.56248017322695      0.30689684628688
  H   3.63076700742317     -1.66162684110511     -0.80392390228938
  H   0.66507397723976     -0.92255572055810      0.34573033517444
  H   1.26654909049410     -1.43945806173997     -1.08118340080524
  H   1.47000243020335      1.64422441169469      0.86416827762462
  H   3.13341031549451      1.28404918939495      1.39414460039650
  H   1.47974909696989      0.51398116048490      2.89755726050537
  H   1.01588005578376      0.83193598825940     -2.01949412867684
  H   1.96720886742012      2.10775777273192     -2.68820974087093
  H   8.08570204189065      2.10377087339369     -3.62577267980416
  H   8.11896785502109      3.57153710699319     -4.41826826701911
  H   6.11347621547887      5.18993308933771     -4.17178076528825
