32
Coordinates from ORCA-job 22287optt
  C   1.83355809128789      0.94232626457767      1.07229110989503
  C   2.44920338879930      0.01573455387811      0.03586336980881
  C   3.15971264864934     -1.18284437271583      0.68522334142848
  C   4.26432611147491     -1.74148322241531     -0.21463763722771
  O   5.54780774741885     -1.15281368302277      0.04565454618642
  C   5.65439049589115      0.17809776537037      0.30744003687830
  C   6.80893698926618      0.57353490426652      0.97376175212639
  C   7.02763632731189      1.90834316000800      1.27497447934313
  C   6.07642913391633      2.84206458180830      0.92623512445366
  F   6.24584858192374      4.13789296778082      1.21436820655223
  C   4.92556228763899      2.44155187979803      0.26957424067475
  F   4.01581793011263      3.37527530701968     -0.03568064966410
  C   4.69444167348179      1.12016618012257     -0.08147566097648
  C   3.45269037561343      0.73361033573400     -0.87222198675400
  N   3.75539053741661     -0.13607305370014     -2.01015880022996
  C   3.89638866954536     -1.55964724966330     -1.68440136045778
  C   4.89549617308080     -2.20899798523773     -2.62307618788347
  H   1.13995295030699      0.39471228658205      1.71244748982439
  H   1.28847961728182      1.75961426384149      0.59835310413134
  H   2.60575287945893      1.37643518354659      1.71185621990253
  H   1.65735972011699     -0.35235847418899     -0.62322033308837
  H   2.43768308061537     -1.97329612806905      0.89710569373011
  H   3.59855047467409     -0.89018921517224      1.64290740348714
  H   4.42478910279603     -2.79965237219699     -0.00413199789351
  H   7.52733578602957     -0.18452511111908      1.25269061725921
  H   7.92121260001136      2.23372141868013      1.78989841930320
  H   2.99988856752848      1.64768346472220     -1.25613274494268
  H   4.58361494060211      0.19348202081287     -2.49140426337552
  H   2.92250799830859     -2.04781457696508     -1.81945760066501
  H   4.92874702806489     -3.28771411905300     -2.46814804687574
  H   5.89478649081327     -1.80667589698066     -2.44765281012510
  H   4.61570160056226     -2.01916107804922     -3.65984507482568
