29
Coordinates from ORCA-job 22285optt
  C   2.51493488368545     -1.25814222161991     -0.61405742064699
  C   2.52616228318736      0.09874045040709      0.07979973783703
  C   2.98466729471997      0.00864336272669      1.54132038158266
  C   2.78244028725930      1.31949631763298      2.33672078724446
  O   3.16181764302307      2.45687998071297      1.61350917860996
  O   2.42650551362553     -1.08364274384988      2.26393661193019
  C   1.10579687053456     -1.33891940085549      2.35194240696776
  C   0.77431173515316     -2.58358776198805      2.90152999476022
  C   -0.55456884011507     -2.91627491585218      3.02907470720529
  N   -1.56330168668447     -2.11691744910893      2.65574514468477
  C   -1.21519141425259     -0.96898443213239      2.15471153551795
  F   -2.20317338894054     -0.15605602183285      1.78197324347693
  C   0.07670479116374     -0.49493002033593      1.96493072210064
  C   4.49565256781111     -0.26320509731106      1.53044946045107
  O   5.25494435746978      0.57502402579684      1.10862539707829
  C   4.98620800326536     -1.52858216812859      2.04884639205821
  C   5.42535622571870     -2.56148864971277      2.46722159262044
  H   2.25582466608792     -1.13973247602641     -1.66519943619000
  H   1.78765604480625     -1.93351551894403     -0.16267758274283
  H   3.49334619715101     -1.74052932045951     -0.56230559506468
  H   1.54996365429957      0.57555714537464      0.01582929281248
  H   3.22043449581820      0.77701424761998     -0.41549966854280
  H   3.32507746686018      1.23466415198086      3.28560189079984
  H   1.72737978441237      1.43256217674235      2.57755051658727
  H   4.08956689323835      2.35951753813983      1.36267796022340
  H   1.56176643162473     -3.25550603559728      3.21046120072038
  H   -0.84027181161562     -3.87365157527694      3.44810870566553
  H   0.21121976765813      0.48417035923949      1.54051236552649
  H   5.81976928303440     -3.47960394734149      2.83566047672595
