21
Coordinates from ORCA-job 2228optt
  Br  1.25836584492861     -0.37899565631184      0.39835486377957
  C   3.05663743025988     -0.03821402797100      0.01040320720700
  C   3.54993197511291      1.20782480494195     -0.24940714028198
  C   4.93291867033150      1.22195030594073     -0.44879290694428
  C   5.67010582288710      2.32400085616888     -0.52012895731657
  C   5.22473787271753      3.63889030423317     -0.23708094620712
  N   3.84382616935102      3.70526931199194     -0.18870941358411
  C   2.94514579890220      2.59417744861579     -0.19697933676854
  O   1.76599898323209      2.80370043053884     -0.12299720148154
  C   6.33061299961876      4.38640753437616      0.02166985362411
  C   7.55147502245788      3.48341194282218     -0.01019979782013
  O   8.68224428354098      3.80894973995606      0.20721706622707
  C   7.01142152638605      2.05638004212616     -0.29516391061025
  C   7.10497270589904      0.68387810354736     -0.14905777508752
  N   5.79602106978329      0.16095290561263     -0.25245215337145
  C   5.16341412604858     -1.04090418394614     -0.06069852473451
  N   3.87943014118180     -1.13963369849683      0.03854051946149
  H   3.36231566472752      4.57978567167817     -0.03155754204434
  H   6.41649160583573      5.42658060438259      0.28992639816281
  H   7.93378480306902      0.02161589749305      0.03298854815443
  H   5.78014748372844     -1.92802833769985      0.02112514963585
