28
Coordinates from ORCA-job 22293optt
  C   4.21407461846537      0.94045521320552      0.83724376743686
  C   4.87882953887819     -0.34048856878180      1.25224072114887
  N   4.27490861918806     -1.44518723531425      0.92821494167141
  C   4.88496085457680     -2.67256414226333      1.11246887583725
  C   4.44692124886878     -3.88216307020444      1.57318031851053
  F   3.17474097691026     -4.27322541364906      1.48927302956058
  C   5.42319348750628     -4.70901180147725      2.32547148662004
  C   6.34603467458913     -3.93156465155901      2.96756178882009
  C   6.06536125661321     -2.48377975057038      2.92171286184574
  C   6.33613051340699     -2.45867718342755      1.35914444649491
  N   7.70065381481317     -4.08930874912062      3.22278247444341
  C   8.47837709616550     -3.05439274034130      3.04541082844864
  N   9.78790441363828     -3.17577815235026      3.33406624511942
  C   8.31228332262012     -1.47906787176001      2.37288491704901
  O   9.31066677128268     -1.10176934737235      1.83806022184744
  C   7.17092172278165     -0.30123968392599      2.53281708373010
  N   6.03331983643819      0.01175788755684      2.07610145550340
  H   3.36863210706192      0.72690368826854      0.19023163088194
  H   4.93513971366296      1.57229481334197      0.31486087841176
  H   3.88602497577116      1.49397951497365      1.71777116470989
  H   5.50514023012577     -5.77788662022213      2.18116857670305
  H   6.68729692195316     -1.97723245495248      3.65194689963999
  H   5.05578161257011     -2.16947267259587      3.15477342651008
  H   6.95216301904488     -3.29265456332326      1.04952704592558
  H   6.66044437173818     -1.59601558650357      0.79797306531445
  H   10.11539245556340     -4.09254229448863      3.59155579971965
  H   10.43437863285594     -2.52378897188898      2.92071013429927
  H   7.63232319290971      0.43142040874604      3.20184591379659
