35
Coordinates from ORCA-job 22298optt
  C   2.36514747799636     -1.61269873507902     -1.23402232401205
  C   2.44624585556845     -0.41066738955826     -0.30517965140609
  N   2.94658424229791     -0.77833024521918      1.01591653624245
  C   1.96695862281723     -1.03273291661641      2.05885697749332
  C   1.50243897560107      0.24054636446299      2.75548694600265
  C   4.29282873401914     -0.86837435971284      1.17124067022785
  O   5.06061785074402     -0.64846744867855      0.25482529678132
  C   4.80393539186338     -1.26604610999873      2.55911612495664
  C   6.29497989980799     -1.19057664327577      2.63903383156925
  C   6.97769580223968     -0.18075170251490      3.28721410377429
  C   8.36898970454308     -0.16406554663952      3.29701985499042
  C   9.04481066496703     -1.17855636247809      2.64270285295413
  C   10.55023091919146     -1.26336120324532      2.60558984169755
  N   11.18376246539186     -0.02683014812880      3.04351027190137
  N   8.39784564539730     -2.16746246157290      2.00912122516303
  C   7.09906059425903     -2.14776783941406      2.02221435760594
  F   6.48459342254387     -3.15727741472545      1.39692618662561
  H   1.98601422066816     -1.31695420285881     -2.21264695937916
  H   1.70101013102641     -2.37697292045702     -0.82640752875441
  H   3.35833520958822     -2.04220348049738     -1.36089543743166
  H   1.46451346658915      0.04695111506492     -0.17065035830877
  H   3.11651200391310      0.33885641001997     -0.72254448322456
  H   2.37353842350586     -1.73391183083708      2.78531455487749
  H   1.11651379836951     -1.53721843394078      1.59383738829422
  H   2.33826828275108      0.73320333936413      3.25355424521519
  H   0.73942144327221      0.01649908864349      3.50186477533716
  H   1.08042672550217      0.94333120994100      2.03644599827507
  H   4.46916127796247     -2.28573705440175      2.76480886826653
  H   4.35759677613808     -0.62036241159305      3.31762383801042
  H   6.42049643397210      0.60218425179820      3.78926020290690
  H   8.92548962014104      0.60799725845762      3.80720902490444
  H   10.83258298609601     -1.58702943122415      1.59832721927215
  H   10.85504009245978     -2.06306562244224      3.28535862268100
  H   11.08371610059545      0.69603451484453      2.34014332129979
  H   12.17463673820021     -0.16618163748676      3.18982360519050
