29
Coordinates from ORCA-job 22295optt
  C   1.04380993151797      0.14044371888700      0.16678918774901
  C   2.52059722285058     -0.06398634702977     -0.08348053137666
  N   2.86246402188147     -1.46863965665026     -0.32364077232565
  C   4.20228058001465     -1.47388118519962     -0.89473151558489
  C   4.39611631401968     -0.11037487721310     -1.55263554152434
  O   5.36350957694623      0.26547314700282     -2.14797520302643
  C   3.13147192797779      0.71448544436780     -1.28278398151364
  C   2.23695017802207      0.78207056259175     -2.55124972570919
  N   1.52433994012346      2.06981016145770     -2.44734400311122
  C   2.40683691616752      2.88698082852365     -1.70466672589180
  C   3.33028655652690      2.17420911402376     -1.03184700982977
  N   4.18221404932018      2.76644143836014     -0.15988904869830
  C   4.16806849511039      4.16274559659414      0.06809881182751
  N   4.94431365138870      4.76246060210869      0.87402309711908
  N   3.22937452074499      4.87782444258954     -0.66760059638187
  C   2.43615446786106      4.28878263918871     -1.46227287186241
  F   1.57699479683164      5.03123728366682     -2.15434032436667
  H   0.73860382471657     -0.43594010039918      1.03973198802193
  H   0.44619208126382     -0.18456887721826     -0.68652908447167
  H   0.82599928751231      1.19327003019064      0.34544504725281
  H   3.07571659357826      0.25054280065786      0.80946844002786
  H   2.19452067121042     -1.87778639751006     -0.96786665257602
  H   4.35967164000297     -2.27685599067692     -1.61379079262094
  H   4.96151732822262     -1.58037170489195     -0.11299655526862
  H   1.53823799416851     -0.05231704082708     -2.61380573592677
  H   2.88869522479009      0.76940075680656     -3.43122757895046
  H   1.27482376851171      2.45544122282767     -3.34907631018996
  H   4.92538253984012      2.23133020592231      0.26139799924619
  H   5.57385589887729      4.12077218184861      1.34779598996290
