24
Coordinates from ORCA-job 22304optt
  C   1.11532856023508     -0.06398921934892     -0.07595643993374
  C   2.59942944359667      0.00486451707712     -0.01845696131484
  N   3.31427970013827      1.05556299870635      0.25983220891972
  C   4.63161518214507      0.65221761009737      0.19922220427098
  C   5.76625694230642      1.47050369128437      0.42433419687599
  C   6.77581757919026      2.09596603130798      0.59943081726781
  C   4.68619875581699     -0.67875208635631     -0.12705454384001
  N   5.82760629720822     -1.43971932908062     -0.31979751335429
  C   5.93725735251629     -2.76373547602718     -0.54875301516832
  C   7.13165960894868     -3.37974724443225     -0.77623741606306
  F   8.22984959342310     -2.61850960864655     -0.76704638961740
  C   7.19449670976726     -4.77904776669975     -1.01635464711302
  O   8.18049679911932     -5.45085507512986     -1.24208256326785
  C   5.83402484782224     -5.38294737998123     -0.96682473563510
  N   4.72560172469481     -4.79431060680694     -0.75878412583664
  O   4.77244876047101     -3.42626234247450     -0.54169565603128
  N   3.39440452690408     -1.08862225566228     -0.26893544153288
  H   0.71852964190116      0.92184999022377      0.15064887333436
  H   0.72223148873600     -0.77755171782425      0.64985978766207
  H   0.77128916364917     -0.36255118708331     -1.06745688345899
  H   7.65498555105575      2.67206527986866      0.76278973767897
  H   6.69613644290491     -0.92054062921731     -0.27628759165035
  H   5.75441232165700     -6.45213243206866     -1.12919118009919
  H   3.09264300579216     -2.02475576172571     -0.48220272209294
