35
Coordinates from ORCA-job 22301optt
  C   0.85838726004895     -0.71172966727318      0.05183434454361
  C   2.33404168383423     -0.32870366471624      0.01150167350671
  C   2.86389737619257     -0.15077168222045      1.43528584841238
  C   4.29824999055792      0.36651142720528      1.52965073645386
  O   4.48182289257542      1.52614903154762      0.74421879737598
  C   4.70066713989601      0.66189632100581      2.97394505758867
  N   3.97224681157872      1.83781529997149      3.45229601241987
  C   3.15381744373009     -1.36305716035709     -0.77369351421520
  C   2.80605622650532     -1.45047008923417     -2.23342644209271
  C   2.01014608264662     -2.41011733203720     -2.74867290779473
  N   1.40820409482565     -3.44387553010833     -2.06505481270783
  O   1.73916765435791     -2.49990333815774     -4.07218033336898
  C   2.26563107933656     -1.64626881698374     -5.02609700859943
  N   2.02321561763616     -1.80457256286753     -6.25186539089601
  C   3.08740310819874     -0.58475617862719     -4.47560105735453
  F   3.58083289945303      0.28259680753223     -5.35917641219966
  C   3.34093556812880     -0.49263926327174     -3.16532039984914
  H   0.26584009811063      0.05805536922167      0.54844434645364
  H   0.72084807693700     -1.64141409061721      0.61502232434604
  H   0.45308434776499     -0.85035141457231     -0.95210756188366
  H   2.43366446706450      0.63203633184679     -0.50175858556661
  H   2.79743816965196     -1.10573261971667      1.97118831837001
  H   2.20558532042535      0.55426107273685      1.95556241399818
  H   4.98862725405075     -0.38438185179043      1.13872806592101
  H   4.18370537011965      2.26535315338720      1.29480820468431
  H   5.76410196345328      0.90290997653194      2.98378778759546
  H   4.55072608989137     -0.22984273619746      3.59200166044053
  H   4.47188206941483      2.30770121458294      4.19436602012966
  H   3.05716964648712      1.59543528621400      3.80931259104130
  H   3.04695677843719     -2.34429034332335     -0.29702861037080
  H   4.21314119246982     -1.10720429173867     -0.70494488776895
  H   1.17119140995384     -3.24435586543496     -1.10644684432208
  H   0.66545488917246     -3.89459269709834     -2.57725257135025
  H   1.42645178342758     -2.61394031983800     -6.40732518903746
  H   3.96840814366492      0.31325022439821     -2.80100167390318
