22
Coordinates from ORCA-job 22310optt
  C   1.07199017462977      0.01153264556898     -0.13137635127636
  C   2.57449409347729     -0.03617477398823     -0.10576094302236
  C   3.22688492980306     -1.26908696412588     -0.06822491752047
  C   2.52099232645045     -2.51079023373242     -0.04414041412240
  C   1.95057462202920     -3.56452175006818     -0.02483418668161
  C   4.63122294303577     -1.31715564007373     -0.05739372598983
  F   5.21799817399809     -2.50517371130117     -0.02054625235789
  C   5.41338283375615     -0.18566256069484     -0.08572746329544
  C   6.83936394506231     -0.26318307598846     -0.08113224041602
  N   7.98636016829592     -0.27540178538674     -0.07811276548287
  C   4.75419053856934      1.05356428514679     -0.11878918444798
  C   3.35156599561472      1.13858292136084     -0.12424135589887
  C   2.94173685230463      2.52890509177069     -0.15681568175397
  O   1.66513274027063      2.98670654944282     -0.19178866826634
  C   3.98554429885166      3.38478711917806     -0.18107797285703
  S   5.51665355841334      2.58872245415346     -0.16879170562297
  H   0.65466859618542     -0.98685958527720     -0.22979482744860
  H   0.71540670121679      0.60656136115660     -0.97432169041096
  H   0.67746623509573      0.43351169208530      0.79823002764285
  H   1.44812858687616     -4.50236400812446     -0.00745205099102
  H   1.05053723382324      2.30723641874532      0.09477686224148
  H   3.92370445224029      4.46026355015244     -0.20368449202134
