26
Coordinates from ORCA-job 22313optt
  C   0.95632971505398      0.05642667678814      0.57288541816099
  C   2.44058869906593      0.05121587727667      0.39294050532039
  C   3.18315310402037      1.16419906111009      0.52631906944616
  N   4.53512461601229      1.21914352938659      0.28587958876628
  C   5.13821011197884      0.15178759046373     -0.08738491475663
  N   6.49741601100004      0.16795658982139     -0.30127601985252
  C   4.46739036779369     -1.15914622918227     -0.25438261828085
  N   5.02528482798464     -2.25654914233043     -0.59232880800196
  N   3.09499688968795     -1.12584104041565      0.00173401329060
  C   2.38878557895494     -2.36098988996733     -0.00464400723422
  N   1.69520350784062     -2.70099891282133      1.01930022374631
  C   1.01911113261807     -3.89217630381530      0.93596195648586
  C   1.06920246577692     -4.69050843369439     -0.14602400198753
  F   0.43199284569672     -5.85216947273759     -0.18816122020665
  C   1.85514891866751     -4.33611648733018     -1.31782845917288
  O   1.99290407745221     -4.98329957849236     -2.32550621106769
  N   2.46947875331402     -3.09484825515243     -1.14047833597007
  H   0.62415354541766      1.09022215169113      0.63700738141025
  H   0.65467917590707     -0.47530328765989      1.47262511306850
  H   0.45396946141154     -0.41535235834389     -0.27416219150374
  H   2.70961048272726      2.09442526149880      0.80389737640561
  H   6.88202899963153      1.10109655508965     -0.27991345867761
  H   6.84823749518842     -0.39404991462969     -1.06151129015700
  H   6.03118000302090     -2.16524313788006     -0.65725902098357
  H   0.43704557169750     -4.18472849092101      1.80080384351063
  H   3.15777364207932     -2.84015235775237     -1.83949393175866
