32
Coordinates from ORCA-job 22328optt
  C   2.17996017370780      0.16891795521030     -1.61991179242475
  C   2.55406993834718      0.06091407199063     -0.13995940326736
  C   1.36576113855154      0.36700569732078      0.80265096022568
  C   1.71906889229274      1.19000624178228      2.06411185651689
  C   1.73608033255634      0.18683184705568      3.22173849062459
  C   0.61747516626525     -0.78114363090367      2.84659864834142
  C   0.83728995360704     -0.99895863749465      1.34259252402303
  C   -0.43716417313931     -1.43705054186090      0.61326324087898
  O   -1.00349337281181     -2.61928013793081      1.12772940701143
  C   1.97441399273039     -1.96963500477007      1.08255995351453
  C   2.05828155729099     -3.21748173068092      1.59965205743506
  C   3.14365187314049     -4.14638844228138      1.36522542808004
  O   3.23033956080323     -5.26391782647227      1.79960186694996
  S   4.52709614149267     -3.58700551526753      0.32510320937509
  C   4.07562928994576     -1.98276903600915     -0.10936403982521
  F   5.00040852211572     -1.36999180912544     -0.85202921751346
  C   2.95142834708668     -1.34520057369112      0.23943988274066
  H   1.87253972031692      1.18772360122123     -1.85998114028162
  H   1.35334668894747     -0.50200609900646     -1.86151414468305
  H   3.02476045283002     -0.09430424717641     -2.25653245656320
  H   3.37993326101667      0.74909474027654      0.05395802485408
  H   0.58623256078085      0.87824434198680      0.23327798260978
  H   0.93851083706226      1.93178325653551      2.24480656353607
  H   2.65805591243818      1.73223390043474      1.95156192965241
  H   1.59187635821555      0.65673457925256      4.19388749084885
  H   2.68966026151237     -0.34786878684233      3.24969385166172
  H   -0.35792499336643     -0.30960098867597      2.99874347744253
  H   0.62477960857939     -1.71177584345749      3.41179451058073
  H   -0.24130157694544     -1.52973826428574     -0.46091761899604
  H   -1.18785474047565     -0.65569888653121      0.74887397707565
  H   -0.49013409235263     -3.37442966788119      0.82364692991343
  H   1.30122240745770     -3.59224456272231      2.27869754966206
