25
Coordinates from ORCA-job 22324optt
  C   1.04469756766053      0.12740209039374      0.08421215960335
  C   2.53338739179504     -0.00844995319735      0.08169616701182
  C   3.20669667210458     -1.17545060083908      0.06666850048574
  C   4.63724757319834     -1.23476051146439      0.06371162029752
  N   5.27652946611306     -2.36075196294618      0.03877465340086
  C   6.62636080930543     -2.32210789078308      0.03375601588215
  C   7.53967926148851     -3.35432835920110      0.00083063915773
  N   7.24987853388603     -4.71685444734079     -0.11371323898002
  C   8.83636856910675     -2.76607368798330      0.01566723895358
  C   8.76321322146943     -1.38513338666329      0.06534616513212
  C   7.38923956400414     -1.05964934587744      0.06969606425923
  C   6.66184707208053      0.07374819736084      0.10079816585551
  F   7.16968330549607      1.28148044405538      0.14798391991754
  N   5.29354905226145      0.02223940060806      0.09016273159458
  N   4.63722077878069      1.21131731659156      0.09972456101785
  C   3.36905481884428      1.16517442792022      0.09431587393669
  F   2.75146882140677      2.34158692878403      0.10163480068808
  H   0.57659064620851     -0.85489720768352      0.07856876841062
  H   0.70380889825837      0.68415015620681     -0.78994640001763
  H   0.70589586925159      0.67338159770492      0.96592047036496
  H   2.69895180734077     -2.13103331051516      0.05329751964257
  H   6.27964066585235     -4.91743927572314      0.08634362221522
  H   7.85515703300887     -5.30914444275947      0.43615296219136
  H   9.75553487873170     -3.33543495620573     -0.01336560154983
  H   9.58629772234616     -0.69097122044254      0.08676262052839
