23
Coordinates from ORCA-job 2232optt
  Br  0.87115833840687     -0.05752187166812      0.29275385761483
  C   2.73061806344926      0.00185231499199     -0.00446226819347
  C   3.43572399958694      1.14420069260017      0.18349830441078
  C   2.70203318481148      2.36854388194870      0.65282347953613
  C   2.38380860551544      3.30677708624544     -0.52686358277789
  C   2.25742537440034      4.76616545837901     -0.95191578641191
  O   3.69731114874075      5.12418764656911     -1.03786401010054
  C   4.37127839316363      4.12969029013428     -0.35165278224364
  N   5.46034438761126      3.60522148511998     -0.68691191599420
  C   5.76904130193130      2.45081229983785      0.16780027606057
  C   4.89092321609593      1.21370491461358     -0.09531905134386
  N   5.55731599764597      0.21333717107649     -0.54925558183923
  S   4.98151054470567     -1.27881424012046     -0.86837385443761
  C   3.26759661970370     -1.28840022253778     -0.47036949072590
  O   2.62662381415400     -2.29769099696366     -0.60150885006801
  C   3.40738957426082      3.63808021579485      0.63456829591743
  H   2.00778393142702      2.21687557389567      1.46881693009216
  H   2.90421793331729      2.85173257867655     -1.36594412086261
  H   1.75159961192709      5.42448230795639     -0.24995912735500
  H   1.85727357094171      4.88870451891101     -1.95535154308916
  H   5.69286990102116      2.71175094836854      1.22865831671950
  H   6.78511183227475      2.12665216489565     -0.03374174842981
  H   2.97604065490758      4.40065578127474      1.27157425352146
