28
Coordinates from ORCA-job 22333optt
  C   3.49202344545863     -2.60720882406778     -1.72716645002074
  C   2.56980809381106     -1.49724851963176     -1.27149409202862
  C   3.19616832324537     -0.57970748285419     -0.20662405314349
  N   3.66040418593180      0.58843518375628     -0.96120940556560
  C   3.13691941910697      0.49310329211252     -2.10639651802692
  O   2.35661823955234     -0.58605488634842     -2.37512376288838
  C   3.29811779023821      1.45162151886962     -3.21925881612682
  C   2.98160011351231      2.76839516824708     -3.13094262122818
  N   2.43955310180507      3.40260930055557     -2.03326335401094
  C   1.47687373946530      2.84867334778497     -1.40711176273272
  N   0.99004787128679      3.34170281716262     -0.25579375441048
  C   3.26102032260018      3.67516220036737     -4.27446236249442
  N   3.02250722230287      4.91009728562131     -4.32074117849318
  O   3.82767249902745      3.11511040314075     -5.38659080756485
  C   4.12001816172461      1.79873380062428     -5.46352364688802
  C   3.87567730889400      0.97342577283324     -4.45081189688294
  F   4.20049138904721     -0.32401641906840     -4.53784927200109
  H   3.64874755994278     -3.32072874764912     -0.91681289039920
  H   4.45775391007782     -2.18917127313895     -2.01730413115491
  H   3.06890399675277     -3.13160819925926     -2.58274243781020
  H   1.59315181652738     -1.88215848598414     -0.98312660918007
  H   4.03149487951067     -1.05719488863750      0.30583417475029
  H   2.47837558235506     -0.25224766668081      0.54984654755135
  H   0.97622969838945      1.94587803287171     -1.76927525957725
  H   1.41078726999156      4.16462542468913      0.14265036082829
  H   0.16665539880656      2.95808127502788      0.16761070494284
  H   2.61885165540313      5.19922131592055     -3.43317085279372
  H   4.56652700523258      1.50446925373541     -6.40014585264999
