26
Coordinates from ORCA-job 22330optt
  C   3.21969057163088      0.44231830488330      1.34080376896373
  C   2.63276250114320      0.34335659626325     -0.06616678933759
  C   2.80684555120394      1.62560487265259     -0.86845953701704
  O   3.13026011185513      1.64901158744217     -2.02074390619933
  N   3.03326769082280     -0.84178902868870     -0.80063556091820
  C   2.06434361969569     -1.34625329634528     -1.74609094980991
  C   1.18377100393920     -2.43362345566818     -1.15640184205420
  F   0.54717883308942     -2.01757310101198     -0.05301397298233
  F   0.25773983982478     -2.80773259194442     -2.04369955045285
  F   1.87927675768210     -3.52322598347211     -0.81596011259794
  C   4.38306694917201     -1.12660660391992     -1.02930874144323
  C   4.78580370497657     -2.40520989924742     -1.42478927465145
  N   6.05109200676093     -2.72701594403575     -1.64608541819517
  C   6.93771179956246     -1.76925476474380     -1.45478912540464
  Cl  8.59406741652837     -2.18978668350150     -1.71530593593368
  N   6.69492149874832     -0.52804986675934     -1.08747195272943
  C   5.42285081933794     -0.20690855305949     -0.88799495331792
  H   2.83690212687612      1.33563076304933      1.83529162556436
  H   4.30632726076250      0.49330834505032      1.34435131273886
  H   2.91566416649260     -0.42850750875675      1.91855859890060
  H   1.54776328107417      0.26630164474708      0.07217354303994
  H   2.57714878894243      2.55927106909905     -0.31722629530426
  H   2.55398238811548     -1.76350701719662     -2.62587548870936
  H   1.40418223868094     -0.54739555673824     -2.09321650325647
  H   4.05682788480128     -3.19550102427285     -1.56064786684030
  H   5.23755118828066      0.82413769617529     -0.61629507205218
