31
Coordinates from ORCA-job 22332optt
  C   1.02247430086111      0.02629516338838      0.07478813230012
  C   2.51392806454125      0.08487779196320      0.04754744487265
  C   3.34615504332346     -1.03230350975993      0.03454128373016
  C   2.92644959594591     -2.37701708456523     -0.00250950681096
  C   2.48661926150147     -3.49710900422126     -0.05258437607319
  N   4.66050972979025     -0.57692902045580      0.00745205079685
  C   4.64713865170024      0.81858308948410      0.00182156350530
  C   3.31660347307949      1.22485699616977      0.02581002243102
  C   5.86123728442839      1.54739670179749     -0.02425817909344
  C   5.77368982084548      3.04768457964628      0.00614619914132
  N   5.38103796368167      3.57291656394050     -1.30420846567302
  C   7.04956139315502      0.86204028390038     -0.07809325665983
  C   8.40640975665531      1.50706213008337     -0.14153629374229
  C   6.99266838695237     -0.54541846206365     -0.06162992768054
  F   8.14993658825113     -1.25196339988445     -0.08182278509533
  C   5.84074600009210     -1.27500320302251     -0.00489538083944
  N   5.83554072116799     -2.63976169052243      0.10459030462230
  H   0.64423901094489     -0.67035493924568     -0.67442832827253
  H   0.59783429819403      1.01024530594458     -0.11750527105407
  H   0.66299874971627     -0.31669010650143      1.04689804860187
  H   2.11339766278758     -4.49283400773568     -0.06272972268851
  H   2.98351402203937      2.24823669829163     -0.01852135794297
  H   6.71561772901958      3.45957215325839      0.38044593070299
  H   5.00100514439528      3.33636799720746      0.72259577928666
  H   6.03408451286044      3.26751017909809     -2.01651403653098
  H   5.38088550429669      4.58608058326770     -1.30218246919669
  H   8.35301697847239      2.51009002819886     -0.55788467505961
  H   9.07804198539221      0.91411316359076     -0.76027310584023
  H   8.85544510911020      1.57165413635063      0.85208255144497
  H   6.71169660888330     -3.07845350562681     -0.12784714059818
  H   5.00851664791500     -3.13074561197674     -0.19829503258439
