33
Coordinates from ORCA-job 22338optt
  C   2.41783031981766      2.03939994772766     -3.54129081498333
  C   3.37488207473362      0.89908205072379     -3.86190305171008
  C   4.01711897997094      0.31372252358971     -2.61079206403947
  C   4.98168556321132     -0.81599013808736     -2.92849533227563
  C   5.60950886701148     -1.42851550900058     -1.69647660036971
  O   5.22027893684138     -1.20339829181188     -0.58212169720166
  C   6.84834859938015     -2.29878218192647     -1.91776007262399
  C   7.22546429583615     -3.13661543069246     -0.70906470153147
  N   6.73858912863382     -3.10325016608312     -3.14203625452628
  C   5.71773487544107     -4.01678868048406     -3.28335855249921
  F   4.78652699918065     -3.93831260074790     -2.33613806029656
  C   5.62343179960162     -4.88141115001989     -4.28580127404972
  N   6.63063215259217     -4.87453374087123     -5.25530314030646
  C   7.66572788485359     -3.99956145437184     -5.27218579351007
  O   8.51759771340362     -3.98467144544288     -6.13045103641634
  C   7.73006703694325     -3.01182459558445     -4.11393659430879
  N   8.66142959836143     -2.16189687896265     -4.03614571146198
  H   1.96699663654029      2.44997427846459     -4.44495579181223
  H   2.93898219261270      2.84954545199990     -3.02800639894979
  H   1.61286062514121      1.69810887180293     -2.88791096267163
  H   4.15738241369399      1.25367618118392     -4.53937105691925
  H   2.84070989257383      0.10845963813984     -4.39769368694028
  H   3.24593692825877     -0.05489348229889     -1.93102018771600
  H   4.54803325598454      1.09835324044146     -2.06504632690443
  H   5.78929173797025     -0.48503635500116     -3.59155541376602
  H   4.46493882363775     -1.61434783726983     -3.47367322686052
  H   7.65301619226705     -1.59255734143157     -2.13760443041022
  H   6.45273437211765     -3.86984883259789     -0.48180202326634
  H   7.33841285800537     -2.48843972357381      0.15713137427457
  H   8.16834360174911     -3.64915878962079     -0.89778856204302
  H   4.79968939861008     -5.56505570303587     -4.39106535902441
  H   6.60107889740384     -5.53678670583735     -6.01568694733809
  H   9.27573734761956     -2.28164514931984     -4.84069024754155
