28
Coordinates from ORCA-job 22341optt
  C   1.12779530605345      1.12020709949363     -0.58136335681389
  C   2.62160703427396      1.21416822653338     -0.74942391212483
  O   3.09364426107231     -0.10129521374570     -1.12072622612647
  C   4.38634463815759     -0.27405555996753     -1.21339826944418
  C   5.11164202274738     -1.40411620298361     -1.54004830249634
  C   4.84705580473054     -2.74744328890956     -1.89655984001798
  N   5.81201582957459     -3.57785491310747     -2.13911114162442
  C   7.12521882320727     -3.15710421654437     -2.05073513677911
  C   8.16707010137189     -4.20632427507327     -2.33236361101376
  C   8.04853472058466     -5.37101675316253     -1.33657532725156
  C   7.98556359959258     -4.77932186910785     -3.72516809221913
  O   8.89984684200529     -5.01605853656973     -4.46265533353056
  C   7.47179251920468     -1.88752995767692     -1.71621547887370
  F   8.74507575887346     -1.50693829083246     -1.62345568419016
  C   6.45000089319923     -0.93560733851593     -1.44495504780745
  N   6.54414856359516      0.33002795543785     -1.10772994989585
  O   5.20044677766256      0.72693712739116     -0.96735824371824
  H   0.73195145209972      2.09900761295680     -0.31204974918863
  H   0.87520722754287      0.41395664696381      0.20841315706179
  H   0.65480854856291      0.79594534331022     -1.50732715981857
  H   3.12153477841399      1.51139287554688      0.17269990349538
  H   2.90615410958419      1.91152486507658     -1.53845988363354
  H   3.82897479939576     -3.11432100906186     -1.97449011361295
  H   9.16397758923034     -3.77233916590815     -2.28442659450006
  H   7.06489899856091     -5.83465801728437     -1.41339485200635
  H   8.17880555638492     -5.00561024576095     -0.31803688899479
  H   8.81376348489028     -6.11879104945453     -1.54304200429549
  H   6.94111995942740     -5.01078184904349     -4.00604286057914
