19
Coordinates from ORCA-job 2234optt
  Br  1.08729987402765      0.54659448135890     -0.34694695239987
  C   2.85139031061356      0.15316638584481      0.16056369529870
  C   3.18960076969816     -1.04051415847193      0.67020004497720
  C   2.54565531077786     -2.39701374047556      0.66225850896527
  C   3.55264117002364     -3.29948965365382      0.88469006621525
  C   3.58714279622753     -4.47484706447249      0.12059090143261
  S   5.33098879625401     -4.89306531398052     -0.14796690411409
  C   5.84915774917571     -3.26709012962984      0.42463352952070
  C   4.80593235999811     -2.67684256848659      1.04368016523729
  C   4.63025948662498     -1.29913035807123      0.84584186545713
  C   5.70404488895754     -0.73103859333691      0.23903069848859
  S   6.89429946402472     -1.98937996714390     -0.17183128225085
  C   5.66373350118740      0.62936708361358     -0.26078904473306
  N   6.56079141064340      1.38621470016216     -0.72418420679004
  S   4.01557518043581      1.40621938942045     -0.20894431777745
  C   2.38956979826806     -4.62101300959296     -0.53175982144456
  S   1.37323063333621     -3.21942197329103     -0.30362722916731
  H   7.48537458946701      0.96169270927406     -0.66788283338680
  H   2.03731191025861     -5.40940821906717     -1.17855688352871
