29
Coordinates from ORCA-job 22344optt
  C   1.06632031401670     -2.10997680928625      0.13523023906165
  C   2.53938805202391     -2.36808637046834      0.39482222975474
  C   3.32221187933532     -1.10405501951023      0.61939209794523
  O   2.80008828534261      0.00174833304461      0.59848760180553
  C   4.76202485235173     -1.21614284909192      0.87315574192082
  C   5.54501268602484     -0.13145475518981      1.09976253417995
  O   5.08559559713824      1.11179861102566      1.11185618823961
  C   6.98886070091054     -0.27411296973452      1.36065342804890
  N   7.79743401979153      0.67981111538020      1.58036749529845
  C   7.39560284714435     -1.66648264696415      1.34678525592812
  F   8.67891737907583     -1.93506553512925      1.61313906339942
  C   6.56375103876136     -2.69011721069748      1.10923805570334
  C   6.95864007921213     -4.12930326872162      1.12446197611310
  C   6.72068707899638     -4.78488058774413      2.47915200583240
  N   7.37071115793413     -4.16709503563654      3.51035203590517
  N   5.98547801755176     -5.79837814386725      2.68976721341502
  O   5.25287957116088     -2.49105144971314      0.86586382824417
  H   0.54056935480475     -3.05065969406557     -0.01993643038973
  H   0.93183416356883     -1.48577259686081     -0.74697516714829
  H   0.60880588819308     -1.59112800214554      0.97615736654334
  H   3.01249486098408     -2.90250056478014     -0.43438857639969
  H   2.69641939483503     -3.00912302230220      1.26775477610463
  H   4.11848361453435      1.07376736788211      0.92854655490075
  H   7.30074630891901      1.57028837482932      1.54663992480793
  H   8.01928107512192     -4.20460380451161      0.88003182976056
  H   6.38871942167174     -4.66089692219089      0.36413960089789
  H   8.13778445395349     -3.54422797245908      3.32222120440580
  H   7.35983753247657     -4.63937705307424      4.39921084558902
  H   5.53342037416483     -6.11092151801713      1.83711108013213
