33
Coordinates from ORCA-job 22350optt
  C   0.98768510150303     -0.51609392784833      0.22245730578391
  C   2.47900031497817     -0.75718047943511      0.35003379402362
  N   2.97735357981611     -1.47900828602894     -0.82989051898953
  C   4.35328432790964     -1.71938544203298     -0.86261875916680
  C   4.93980257248227     -2.92822568777693     -0.78630050007564
  F   4.15747660607100     -3.99891711365317     -0.59232555072478
  C   6.36593657042594     -3.15943416850102     -1.01581344525234
  N   6.73487027503594     -4.35675747818204     -1.25172057306742
  C   8.08457649644808     -4.68726206680208     -1.65145395204785
  C   7.14616889243112     -1.90449502179486     -0.93009958578639
  C   6.51463939632619     -0.71047135828714     -1.01748600921586
  C   7.29407675325282      0.57827545713041     -1.06128849516163
  N   8.29151037413900      0.59754924591543     -2.12142222633189
  C   9.18980821902169     -0.39587728687163     -2.43693813979800
  N   9.42336720823626     -1.50259556948635     -1.86997459022698
  C   8.63895070077916     -1.86293403396940     -0.68917777198561
  N   5.15021123555448     -0.60524673113347     -1.03220814784127
  H   0.61224678015271      0.02357700661728      1.09162353326121
  H   0.44683818738209     -1.46202677644064      0.15765279435622
  H   0.76743304021219      0.06371549835084     -0.67348365824178
  H   2.70230472943214     -1.30948461161793      1.27024338732613
  H   3.00797690875494      0.19501717108407      0.41318438997501
  H   2.47797121594240     -2.35207184369590     -0.94913433432509
  H   8.03341625571473     -5.56589852877802     -2.29535179935651
  H   8.69499561910201     -4.97010937605268     -0.78795154245439
  H   8.60097476134248     -3.89170570916840     -2.19742848037644
  H   7.75417481194545      0.76350406771688     -0.08573403413896
  H   6.61488353892369      1.41102772467663     -1.24518919243175
  H   8.24870673850809      1.36636683907204     -2.76539873111540
  H   9.77320486362545     -0.14329686922691     -3.32145224371365
  H   8.84979448161731     -1.15533305990151      0.12032781391358
  H   8.98497553974772     -2.82735959808969     -0.33426279999122
  H   4.69938390318553      0.23913801421162     -1.34541793682251
