23
Coordinates from ORCA-job 2236optt
  Br  1.18057228842498      0.04095225406525     -0.72385097417058
  C   2.86185761510343     -0.23505585914808      0.07499373923787
  C   3.24153770749498     -1.43535884776760      0.53151341017287
  C   2.52931461757329     -2.77026413412582      0.52921039110338
  C   3.28599817605039     -3.53510523646817     -0.56299825143662
  N   3.68177134866252     -4.89028037030413     -0.20839350384289
  C   4.62760816973238     -3.80308528051218      0.00657809015551
  C   4.60231776034530     -3.18525085914245      1.40766503546115
  C   3.12047670196896     -3.35308210888775      1.84800067651716
  C   2.65655413235139     -4.65375050675523      2.30167896908393
  C   2.23641302252272     -5.66452485156207      2.78656401102922
  C   4.56607995269334     -1.69733457177475      1.10435950688047
  N   5.52107768975218     -0.87470136112294      1.28064246939157
  S   5.34845654661965      0.71899364576588      0.85868115746635
  C   3.73023184911198      0.95424956173502      0.14897422993294
  O   3.42978506751955      2.05389745715338     -0.23123011999817
  H   1.44743958870585     -2.73057996631167      0.45393964022797
  H   3.14500851712904     -3.25182398547906     -1.59707538302330
  H   3.92794199858657     -5.41342978805869     -1.04162995262670
  H   5.52736386487922     -3.73043893162407     -0.58835365477579
  H   5.36838818679895     -3.49570281768767      2.11021902737403
  H   2.91919843959762     -2.64838451282699      2.65836563591362
  H   1.87260675837567     -6.58093892916016      3.18514584992600
