29
Coordinates from ORCA-job 22378optt
  C   1.01815380707849      0.04794737274152     -0.44721147424186
  C   2.53182115746944     -0.09341437440452     -0.36887975782825
  C   2.97292520711936     -1.46847724773219      0.13512450471953
  N   2.55161656179609     -2.58005017894864     -0.71663889751678
  C   4.50499861895520     -1.52174771208697      0.24741287629822
  O   5.04100240562580     -0.43372758732465      0.95784613304894
  C   5.01296021028428     -2.88435256864332      0.75241131164592
  N   6.47267882373753     -2.93746124551445      0.78405778090195
  C   7.22798209276022     -2.36797860548425      1.79415863686302
  O   6.77548105402880     -1.78832164678571      2.73998906733502
  C   7.12611457440411     -3.60787325571962     -0.24380404362954
  O   6.56981917521751     -4.14165592655891     -1.15925436662553
  C   4.39372236680110     -3.36334933722592      2.07227822594326
  F   4.10169177153514     -2.37931827325055      2.93091872870883
  F   3.24276565137139     -3.99481885471296      1.82007925877559
  F   5.18853741310819     -4.23073487411507      2.69972848750926
  H   0.73647570137725      1.04182491471563     -0.79448566859709
  H   0.56214815063603     -0.10268349225756      0.53379895381693
  H   0.58126135201047     -0.67737529519036     -1.13536936410192
  H   2.94926643541999      0.67243635568860      0.28469159114675
  H   2.97563002789102      0.06616655565324     -1.35890795544006
  H   2.54159666670271     -1.62688066148837      1.12824593859519
  H   2.57890762071761     -2.31222037955287     -1.69477060551642
  H   1.60604169578605     -2.87106622671016     -0.50798017671807
  H   4.90043740456444     -1.43495324484392     -0.77202760765255
  H   5.09611906227519     -0.64213321514372      1.89877799570096
  H   4.70419199851238     -3.62696011763392      0.01798088926631
  H   8.30672409026473     -2.51817414016311      1.64627549688928
  H   8.21892890254935     -3.59464673730722     -0.12844595929689
