26
Coordinates from ORCA-job 22371optt
  C   4.12567704098718      1.63908867983209     -2.13121401165304
  C   3.98725730410184      0.77004133543650     -0.92110101686684
  C   3.15675522866103      1.08437879969903      0.14227219932815
  N   3.04843636948201      0.30067067342297      1.21694248950074
  C   3.75732342442894     -0.78502693571339      1.22435529167587
  F   3.66894793946227     -1.56941866648800      2.28464640181471
  C   4.60640646573712     -1.14469819230028      0.17379056544469
  N   4.70200748818363     -0.36214032598802     -0.87578039703323
  C   5.42786757832117     -2.42942397217946      0.14983367710728
  O   6.21683812175733     -2.46285179083274     -1.01552305894558
  C   6.25973894485680     -2.51856364863253      1.35708158783129
  C   6.90871387699523     -2.59524907225264      2.35826551260997
  C   4.45787390071435     -3.64907486530261      0.08486676593432
  O   3.27363768841571     -3.49100516297645      0.12321172682769
  C   5.04143470101624     -5.06299949380845     -0.04795688808054
  N   6.38394279362495     -5.16249984113495     -0.26627183192645
  N   4.29635396523202     -6.07515777442643      0.10631870866156
  H   3.48590958602455      2.51647055441763     -2.06002384349121
  H   3.85746239533170      1.07976400691387     -3.02773007886995
  H   5.15964447374409      1.96700815431252     -2.24281533873426
  H   2.56116949860037      1.98924449872055      0.13512883574957
  H   5.98168192819764     -1.66854988191483     -1.52857280398820
  H   7.48939443464518     -2.66698231364348      3.24731393064498
  H   6.85829352637508     -4.41012428884539     -0.73836857693867
  H   6.71541161455928     -6.09773553166580     -0.44105923701488
  H   3.34481971054416     -5.77716494464967      0.31138939041201
