41
Coordinates from ORCA-job 22383optt
  C   0.80505345648974      0.56781282524468     -0.07159475238816
  C   2.28460821303548      0.60170728340476     -0.42979150354482
  C   2.80966436333866     -0.76636908198762     -0.85873726539202
  C   4.32691223686789     -0.73789528526154     -1.12337777843621
  C   5.14182745804354     -0.97672154443857      0.17892621071623
  C   5.15691299320007     -2.43347285235474      0.63528577354445
  C   6.57557879537743     -0.44312025531441      0.08046325551793
  C   6.67557656295936      1.07760632754281      0.06172977780186
  C   4.81656648842683     -1.58622872887906     -2.28693730916791
  C   5.77514019038050     -1.03502009872278     -3.15330885733943
  F   6.15726115195957      0.23377096398252     -2.93656688347939
  N   6.35545900791741     -1.60035152344397     -4.17028019035981
  C   5.99730905915878     -2.85720410451569     -4.43741870741941
  C   5.05005434365752     -3.52287996959327     -3.69525869486608
  C   4.43646028731678     -2.89321084210551     -2.60611503645669
  C   3.38053546337083     -3.69012756175458     -1.87838467787654
  C   2.12674902201137     -3.89221723212249     -2.73258607255263
  H   0.44293069062825      1.54972097652028      0.23316038489774
  H   0.61944939018774     -0.12816321093881      0.74891788647889
  H   0.20759059294424      0.23990337832684     -0.92472981421967
  H   2.86579818849239      0.96053075219229      0.42502034941432
  H   2.45481358446547      1.31807678643030     -1.23825038888157
  H   2.27075984728465     -1.08625984626920     -1.75434606876990
  H   2.56525591282411     -1.48608677110901     -0.07256218315738
  H   4.54195640735708      0.28963297537012     -1.41855473682894
  H   4.63349093485450     -0.39220612686044      0.95558847201603
  H   5.63068385627220     -3.07563972740671     -0.11118754957124
  H   4.15742881260519     -2.81921086890066      0.83554004312233
  H   5.72902672987828     -2.52292632483678      1.55970343464125
  H   7.06331655503718     -0.86624274105765     -0.80284236432410
  H   7.13530354575897     -0.81942241134781      0.94093014987341
  H   6.16380803358570      1.51218174929309     -0.79611422995430
  H   7.71677011173490      1.39736797566914      0.01337638662087
  H   6.23869047063108      1.50142530289119      0.96884374464364
  H   6.49188286751155     -3.33146361169275     -5.27659612822889
  H   4.78217219632867     -4.54115017664189     -3.94838459500572
  H   3.10953953849889     -3.22148454894858     -0.94131624498849
  H   3.80595136401903     -4.66582383387828     -1.62906866153207
  H   1.68159826726140     -2.93380453556862     -3.00212236348608
  H   1.38196605238379     -4.47375189952942     -2.18906229528398
  H   2.36014695594288     -4.41928158138715     -3.65799051577751
