29
Coordinates from ORCA-job 22389optt
  C   0.93943460335741     -0.02813756722282      0.00165621692813
  C   2.43768931382939     -0.01933106954700      0.03515550696558
  C   3.14860210150236      1.19895408623273      0.07920837624659
  N   2.45486541825031      2.36063719162506      0.08872013129956
  C   4.56741162698403      1.18793363805697      0.10588641710424
  C   5.30090197044666      2.43456108752525      0.29224838833812
  O   4.82094712170513      3.55212613826696      0.32521870696328
  C   5.26276300854590     -0.03925826048839      0.04001227711779
  C   6.76782519951187     -0.08042480549688     -0.04156878012466
  C   7.47548085166635     -0.25922366168253      1.28074525236239
  O   6.93566660072271     -0.53496314725686      2.31388218006199
  C   4.57481659236152     -1.23840264112888      0.03702775790486
  C   5.23881009411644     -2.58333661553077      0.03683890383431
  C   5.70892217453412     -3.06578285621104     -1.31691372627773
  O   5.76463095785335     -2.38758781138058     -2.30352311414805
  C   3.17960198140989     -1.17290102987281      0.03007768553109
  F   2.51849856447435     -2.34471698940824      0.00607391104835
  H   0.56985266715535      0.54464108723758     -0.85305680991243
  H   0.52229712197380      0.41862455082208      0.90884556085410
  H   0.55437069781759     -1.04039730843421     -0.07906427837105
  H   1.45922065253483      2.34631352821294      0.20811309041265
  H   2.96554378545660      3.22499926037397      0.19348222599915
  H   6.38549292464903      2.33471388716029      0.45139303502864
  H   7.18911488460333      0.79412151329105     -0.53657092127723
  H   7.08411091346443     -0.91483318354918     -0.67608078601496
  H   8.57557455216083     -0.14092110476545      1.23450468234856
  H   4.56564202176012     -3.34502792545703      0.43447131117878
  H   6.10908970423246     -2.59876140381479      0.70295847638075
  H   6.03182189291974     -4.12461858755745     -1.34374167778280
