31
Coordinates from ORCA-job 22385optt
  C   1.04389475138752      0.09179720780556      0.13212954667137
  C   2.54374891093643     -0.08276765309377     -0.10839736010555
  N   2.94900568031847     -1.41009956761663     -0.56561608227556
  C   2.47262845779055     -1.77032261024269     -1.89422376818534
  C   3.05058629663748     -0.79863781795590     -2.91368473115245
  C   2.66412853783093      0.63505331908364     -2.54297005600250
  C   3.11213714733623      0.95051556631399     -1.09240071889998
  C   4.62136706097993      0.98994452973513     -0.95003605920712
  O   5.30183020281427      1.88837632614257     -1.36429015004142
  C   3.11070686943019      1.65092236773642     -3.56530203655276
  C   2.23989945031468      2.55984138503411     -4.02760805010247
  O   2.54059981200759      3.48921209096460     -4.95492599419974
  C   3.78126385791287      3.59711309199875     -5.53356031725867
  O   3.98326568506940      4.44210612873578     -6.35127114094188
  C   4.73862717160118      2.60537407784467     -5.04930840654874
  F   5.94486239365267      2.68507191085810     -5.59652072269578
  C   4.43774397313935      1.68416159607353     -4.12592117279561
  H   0.69191337614854     -0.64361414944052      0.85714478139152
  H   0.45829435366510     -0.03244427533031     -0.77850588085185
  H   0.83503009099858      1.08544830796240      0.53215951862379
  H   3.04752553346340      0.07487215156005      0.85159154110748
  H   2.69543025018125     -2.11339110261769      0.11621898091160
  H   1.37529168394350     -1.76079459216061     -1.97516719876293
  H   2.80330377269148     -2.78614086569443     -2.11037277183878
  H   2.68192510160111     -1.03276590714578     -3.91394883527544
  H   4.13898754178229     -0.90741436770565     -2.92733071576183
  H   1.57025504491785      0.68201217629072     -2.53319554544456
  H   2.75121503125359      1.95097307710662     -0.83950634498305
  H   5.07668156957486      0.13190301141035     -0.42067908788815
  H   1.21042258933672      2.63645570091743     -3.70582210035003
  H   5.20242780128191      0.98623888542956     -3.81267912058350
