32
Coordinates from ORCA-job 22387optt
  C   3.04400998315153      1.44627844500613     -0.64645432409125
  C   2.44536248308504      0.08993624349369     -0.30835336821105
  N   2.96954644866823     -0.97617012426202     -1.16557700597859
  C   2.14139391461024     -2.00683542073429     -1.65625774618505
  N   2.51997482016161     -3.18671285029551     -1.92554033902173
  C   0.70791279019816     -1.63877689103079     -1.95913815323209
  C   0.59868210136044     -0.51917827525752     -2.99229932519517
  C   4.35938851994233     -1.17922587713035     -1.13663131405497
  C   5.12175287387860     -1.07511668979060      0.03258981563026
  C   6.49207103125717     -1.27289219288740     -0.04009526424777
  N   7.14184507783042     -1.57715824186734     -1.16949984308114
  C   6.43390640683605     -1.68636665377031     -2.28292812289767
  N   7.07543034449350     -2.04092950779697     -3.43599982763774
  C   5.04961005916498     -1.47063219082106     -2.29541096423359
  F   4.41808896172198     -1.55069623837978     -3.47376644090508
  C   7.28191155570339     -1.16282201128424      1.15724825349122
  C   7.91362030121068     -1.06597527619081      2.17048556840956
  H   2.59884066370191      2.21669010687770     -0.01657404224869
  H   2.85248406056894      1.69571446250053     -1.69073808259980
  H   4.12175143274812      1.45913121953399     -0.48427504446165
  H   1.36964002173447      0.12643808677120     -0.44314342389944
  H   2.61463713194221     -0.15025455464155      0.74635088414300
  H   3.49610999254141     -3.35556744567309     -1.68929575591358
  H   0.16757522419228     -1.37896963913266     -1.04642640965606
  H   0.25573953771501     -2.55098447374249     -2.34102397709951
  H   1.01833868948307      0.41896094133338     -2.62740112679733
  H   -0.44394778771504     -0.34262796124055     -3.25559785217216
  H   1.14036447019271     -0.79285375047913     -3.89841349124046
  H   4.66104957607889     -0.85307944196478      0.98311201158288
  H   8.07792872633573     -1.95504239509355     -3.42216930370369
  H   6.60908491932168     -1.87771654949251     -4.31144484648751
  H   8.48589566788418     -0.98656485255729      3.06366886199588
