29
Coordinates from ORCA-job 22397optt
  C   5.16039903463263      1.85033248761381      2.02883602591760
  C   4.45636001255942      0.91532896660285      1.05321058351070
  C   2.91136962099612      0.94143978094930      1.10122725240186
  C   2.30263954215325      2.32497484081486      0.74074877322895
  C   2.72541911482457      2.82768664091206     -0.60390142409531
  C   2.26283684790755      2.45048879673210     -1.82820093132057
  C   2.91554209169957      3.11927116929585     -2.90068232351897
  C   3.86517266470601      3.99931900644500     -2.47891837568732
  C   4.72927636734259      4.89110748314625     -3.32586578777236
  O   4.87495980769921      4.39741895401997     -4.63786957273779
  S   3.97237526155733      4.00447821375132     -0.76458822563840
  C   2.41794971113944     -0.06182458732068      0.14520566150842
  N   2.04425429761258     -0.82853010014961     -0.61915911486472
  C   2.38500075635422      0.53365197522342      2.48551735353944
  F   2.99442844022075     -0.56258225043934      2.93686722606779
  F   2.58430781027807      1.50586088507416      3.38161777060591
  F   1.07330264929562      0.28764271566175      2.46141186805415
  H   6.23068434285960      1.83433375499554      1.82516846706905
  H   5.01094534062767      1.54703700794298      3.06380780081488
  H   4.82445739432872      2.88256986556854      1.92485118519045
  H   4.77907515280705     -0.11233834698622      1.22201822613926
  H   4.73134616857290      1.16865960773741      0.02810907935623
  H   2.59117719627495      3.02904945966778      1.52031640304305
  H   1.21564570450128      2.23659083996450      0.77275165169449
  H   1.48388627829556      1.71191892333614     -1.95966391554972
  H   2.68720593067643      2.96751068705319     -3.94587137374689
  H   5.70226670314395      5.03769964199303     -2.84420339962588
  H   4.26777408897976      5.87474895872527     -3.42949560626362
  H   5.23894166795314      3.50715462166875     -4.59424527732066
