29
Coordinates from ORCA-job 22391optt
  C   0.99775489139306     -0.50500327570924     -0.51135586239438
  C   2.49664984314653     -0.33196506270958     -0.47645908649052
  O   3.06819706169667     -1.63850940221297     -0.34034351093106
  C   4.39928563908635     -1.73532951308315     -0.29799550994866
  N   5.11287691031269     -0.66185185831610     -0.36558048594587
  S   6.74674531659229     -0.62621761944834     -0.34224821107424
  C   7.23544440980526     -2.26322315660032     -0.21684770850086
  F   8.54178044760323     -2.44142321350046     -0.19383364019558
  C   6.35436591217262     -3.28999825856211     -0.14860236949697
  N   6.63924622823830     -4.62313071748238     -0.04696548946728
  C   5.46735963520157     -5.22147846146170     -0.02234698667691
  C   5.39289827015044     -6.71159876964281      0.07685807201033
  O   6.64075369342302     -7.28395347661793      0.36405781405672
  C   4.35004418366513     -4.31478547225461     -0.09802407354840
  C   2.91612825904030     -4.73914274987565     -0.08733968503368
  N   2.65056240082315     -5.60863860028549     -1.23769914013930
  C   4.92142319549515     -3.06919466598206     -0.18445831673630
  H   0.51798089026514      0.46757681917153     -0.61918277292473
  H   0.64162626377339     -0.96569588381462      0.40976610619665
  H   0.70154313155723     -1.13169215270462     -1.35226913998533
  H   2.81812196604742      0.28366007933089      0.36512260198173
  H   2.87996399402762      0.12417684781240     -1.39059612275339
  H   4.98836882285040     -7.10089586482558     -0.86327322466431
  H   4.67452666917190     -6.98282787412572      0.85928273643306
  H   7.30200287078160     -6.58275637526601      0.28513049756860
  H   2.27385751214649     -3.85854279172627     -0.03757294152996
  H   2.73283962200354     -5.33109804962588      0.81410456048879
  H   2.75104985508226     -5.08569023729460     -2.09996375687194
  H   1.70260210444719     -5.96377024318656     -1.20636435342623
