31
Coordinates from ORCA-job 22402optt
  C   7.67328410502145     -1.12507627923965     -0.59851395951205
  C   6.82438788237062      0.12432955547715     -0.45651897972577
  N   5.50323100905252     -0.07795036539603     -1.04534635773963
  C   4.61398799207720      1.07002432926610     -0.85280791921155
  C   4.94584634247880      2.14359631817996     -1.83191834159842
  C   5.63567954641487      2.05895090985756     -2.98795121209999
  N   6.27605880837197      1.03858962568230     -3.64790857215666
  C   6.90477586567139      1.33651357205442     -4.81436897318324
  F   7.50580539200483      0.28460274442923     -5.34788267958007
  N   6.96280549875016      2.45995539504270     -5.38762898514977
  C   6.32081322946737      3.54693819082671     -4.78214187311186
  C   6.40554165938243      4.84279060852755     -5.52138404092495
  N   5.86629404943620      4.66125518528723     -6.86640050492409
  C   5.68681535737693      3.34880639043286     -3.61684158389826
  O   5.01573735829279      4.23128060960067     -2.83598639211830
  C   4.55222877702869      3.53822262044913     -1.70567132666895
  N   3.91492458587221      4.08721897533481     -0.76796735040188
  H   8.66018782974558     -0.97496351234179     -0.16203052203635
  H   7.80009016199192     -1.39422114741585     -1.64843633090508
  H   7.20650518300930     -1.97048757767214     -0.08882240375651
  H   7.29748309281972      0.96375261350725     -0.97406238375048
  H   6.75013286132442      0.41302711121205      0.60105629445131
  H   5.08108587709196     -0.90365803208647     -0.63741245582625
  H   4.67072461645409      1.48414971768620      0.16286761449584
  H   3.58232462413622      0.74000088224746     -0.99973381917578
  H   6.25574441214109      0.10654216619383     -3.24785344933159
  H   7.45536196036176      5.16664208963923     -5.51072680963792
  H   5.81712446250523      5.59212122656527     -4.99250305495055
  H   6.37422840841684      3.91761557839053     -7.33298370258540
  H   5.98776998936583      5.50371806529224     -7.41422010039502
  H   3.78301906156553      5.08171243296951     -0.93489982459074
