30
Coordinates from ORCA-job 22400optt
  C   0.97250906135456      0.41608604743259      0.10559829980648
  C   2.37417215413507     -0.15353084605184     -0.06227871062011
  C   2.98757282693068      0.06690439050515     -1.45481929778697
  C   2.28919136163555     -0.78920513259101     -2.51833219056043
  O   2.21543601701935      0.03072966505205     -3.69155548612169
  C   2.30493287447076      1.30626774574153     -3.31240584703195
  C   1.99453782052204      2.38857425068336     -4.05833393508161
  N   2.12895204458443      3.62556247306541     -3.48805079933304
  C   2.53951759611015      3.73821183177173     -2.29979747855058
  F   2.64489196168259      4.96711456196383     -1.78326978273794
  C   2.95364266083662      2.64933524659385     -1.40097277122418
  N   3.44973750016076      2.69472677636901     -0.22700391023740
  C   3.61508903152957      3.93596690865112      0.51117460568726
  N   2.75551478135559      1.41649509344268     -2.02263750120578
  C   4.49242205154770     -0.31617021328784     -1.39921754071170
  N   5.30591848662418      0.61235350870156     -0.86920548974480
  O   4.86111646920347     -1.40693226251123     -1.77970845998282
  H   0.57041472909802      0.12350291973000      1.07510626118484
  H   0.27926482789446      0.05929393122539     -0.65688615665342
  H   0.99124750203611      1.50489367800965      0.06754095442618
  H   2.36982472138611     -1.23749419715121      0.08593425011111
  H   3.03289521279158      0.27158451857665      0.69202636898573
  H   1.27464800155277     -1.05193806593897     -2.21743190774535
  H   2.86844310004595     -1.67740604659409     -2.74773002614158
  H   1.63485466848603      2.30988519723806     -5.07024698831816
  H   4.00755811320782      3.68759053553942      1.49533272403516
  H   2.67084423086280      4.46607826034954      0.64536309697618
  H   4.31453555007891      4.61912551480058      0.02532010846353
  H   4.91383822136859      1.45131890150187     -0.44725291082712
  H   6.27447642148772      0.36507480718112     -0.74925947905983
