26
Coordinates from ORCA-job 2242optt
  Br  1.11349054111172     -0.22646395066118      0.37790997589407
  C   2.96687023251503     -0.04470096965636      0.07857272930045
  C   3.49458979653689      1.18256946439205     -0.25356129025157
  C   2.92667502993784      2.50668153724680     -0.66768003562172
  C   2.56129146799080      3.90999808663542     -0.32488418879911
  C   4.00791633966771      3.46602660304144     -0.19956495838823
  C   5.27780807261014      2.78628712578522     -0.77387190441778
  N   6.45790711750668      3.10917113053425      0.01804787088331
  C   6.10627823495940      2.97661740642156      1.41606118113915
  S   4.39307975432081      3.57055457783033      1.57275313691569
  O   3.58224038818605      2.70608957862721      2.39220013791184
  O   4.44290597955861      4.97922803158055      1.87769937518717
  C   4.87691333091095      1.30513501780106     -0.50328783757302
  C   5.71513415400670      0.21460006973735     -0.41787071769858
  C   5.16554556665230     -1.01844370839157     -0.06510804272913
  C   3.80904766867757     -1.14964895549118      0.18977464369791
  H   2.98247561879070      2.49490571082515     -1.75974006847085
  H   2.14040310581326      4.19256075532546      0.63441005905652
  H   2.20252228824324      4.49578089044370     -1.16083447508808
  H   5.45776283432560      2.98097140449345     -1.83120810145480
  H   6.76411579902423      4.05462533699065     -0.18209430391738
  H   6.72687966694524      3.59189537588389      2.06113816679556
  H   6.11734262425370      1.93606877049834      1.73539059660469
  H   6.77884026802928      0.32436202652609     -0.58961449753015
  H   5.80375850400542     -1.88784251744569      0.02253269231549
  H   3.39520561542007     -2.10802879897401      0.47182985623853
