31
Coordinates from ORCA-job 22428optt
  C   3.29156212346762      0.39145339505091      1.11739675326105
  C   2.51586708230318     -0.03432273935572     -0.12508748816077
  N   2.97204871541269     -1.30811937846129     -0.66980063024777
  C   2.46594308937805     -2.48430105238135     -0.11957967783883
  N   1.68534241349850     -2.55968892305270      0.88601201465500
  C   2.86282356439994     -3.75383503165473     -0.79866734337522
  C   2.34492143130842     -4.93223752544455     -0.38652088987364
  C   2.69378301140350     -6.19081428242099     -1.00985713656344
  N   2.26655183237548     -7.36463079488275     -0.70878321526053
  N   3.61164060888931     -6.08685329776000     -2.06221734922685
  C   3.98952886017943     -7.33026872387471     -2.71291995679406
  C   4.13119901654964     -4.90392277227547     -2.47333560588849
  C   3.79608431981727     -3.72399560145731     -1.88546936030138
  C   4.33234161591334     -2.45149484620448     -2.25604447826624
  F   5.28303471145929     -2.41309143196380     -3.22189535823023
  C   3.94080756083272     -1.30527126087437     -1.68756193908662
  N   4.40386254621910     -0.05839625081906     -2.12177915597626
  H   2.89175175449405      1.32469205559356      1.51500482042310
  H   4.34672338735755      0.54673073060894      0.88509978745298
  H   3.23749680710768     -0.36883037214264      1.89652050410553
  H   2.60174378169489      0.71240687536130     -0.90993842107708
  H   1.45208979719474     -0.12960613726847      0.09457137447735
  H   1.46968944081623     -1.66431980498719      1.30753551144728
  H   1.64723749514779     -4.94700135556255      0.43913023755977
  H   1.61239263630529     -7.30804571675317      0.06473189130828
  H   4.41903768994099     -8.01054006817858     -1.97867597534667
  H   4.70487551071214     -7.11420386145826     -3.50188795297834
  H   3.10154017282607     -7.81224118409534     -3.12029320680955
  H   4.83187393033371     -4.95005146223517     -3.29456337597210
  H   5.07583789420385     -0.17037884794464     -2.86871758900686
  H   4.80636719845751      0.50417966689461     -1.38140678840941
