24
Coordinates from ORCA-job 22424optt
  C   2.73655072313630     -0.26845452842372     -2.36883228113430
  C   3.36378784997233     -0.09918026425218     -1.03070492518674
  N   3.93683205169962      0.99670850628982     -0.64552771007746
  O   4.37202055110669      0.78485875106444      0.61486531295434
  N   4.07322847919299     -0.46011836817483      1.02822523696474
  C   3.45771859235829     -1.03620209098414      0.04699636288615
  C   2.96483942926812     -2.44849571144174      0.11271871331418
  C   3.31280452992519     -3.11711309417103      1.45668893862568
  O   2.64030613672610     -2.51949837443792      2.53067004065064
  C   1.48711374086499     -2.54214637778516     -0.13680285056782
  C   0.56075074193055     -1.67084411189912      0.27485877686637
  F   0.84760576650948     -0.57039106755889      0.93269665069050
  C   -0.85362866222350     -1.88111188712854     -0.03312684365189
  O   -1.74771523600599     -1.15216540422317      0.25146045576448
  O   -1.08521791077912     -3.03462696485126     -0.73152683591906
  N   -0.08561134516679     -3.94781353478177     -1.09232842815834
  N   1.07782775682892     -3.69789131816668     -0.81233678031804
  H   2.99251130495260      0.57358020590169     -3.00727983568101
  H   1.65014771664833     -0.32010137835291     -2.27991501436512
  H   3.07794972367412     -1.19093781901721     -2.84040628149665
  H   3.44760648648832     -3.02253457336722     -0.68436165629912
  H   4.39797053402770     -3.08955735109111      1.58643321906693
  H   2.99468260259185     -4.15908805792541      1.41888710800357
  H   3.03791843627292     -1.65587518522191      2.69764862706796
