23
Coordinates from ORCA-job 2243optt
  Br  1.11408637138072      0.07445229339059     -0.35121831108243
  C   2.99274868777688     -0.00116384612253     -0.16877177174887
  C   3.60691425592200     -1.18077832362985      0.01679091316096
  C   3.07092114509844     -2.53575301207250      0.18368768586652
  C   2.35706662548365     -3.61403314617730     -0.55806545106792
  C   3.83452543524681     -3.44858804887494     -0.76930163766504
  C   5.11971373695879     -3.65207430361001     -0.07796840264696
  C   5.68575575201950     -2.46111210453685      0.34723567832254
  C   6.89690822070988     -2.71597168389009      1.04090954029922
  N   7.24211042886989     -3.97906327472635      1.11928361404652
  S   6.13155517426024     -4.92894456531400      0.37784250580893
  N   5.02549299751408     -1.21153855784702      0.14027263608518
  C   5.76517834482238     -0.04023221622168     -0.09110117030080
  N   7.02147433196141      0.07706207773117     -0.25430722248891
  C   4.93450446578633      1.17220814403945     -0.16110760497188
  N   3.65804499381675      1.19455316936357     -0.21788364859397
  H   3.23783511632352     -2.85927965146885      1.20825165726424
  H   1.76844229172503     -3.39392920571399     -1.43746533226825
  H   1.95652902472551     -4.39233713843209      0.07615838443218
  H   4.00613509144042     -2.95073695555341     -1.72007533876114
  H   7.52486945003885     -1.97242230304183      1.51437392266345
  H   7.51817926879443     -0.80750040134921     -0.26561514404659
  H   5.48600878932443      2.10518305405776     -0.20192550230697
