28
Coordinates from ORCA-job 22436optt
  C   2.07732511998031      0.57597569890816      1.24798109734696
  C   3.50087400293872      0.56868766012896      0.77935427919185
  N   3.77012310501485      0.65155319995531     -0.46624104012290
  C   5.12079112934767      0.62523726758392     -0.88333578801628
  C   6.08505970320979      1.30632599451548     -0.16543771310928
  C   7.45015457399465      1.00106682573932     -0.22884982973647
  C   8.11078826722363      1.23967230193888      1.09337158687279
  C   7.35913100263187      0.67796436781876      2.05607678083501
  C   7.04363429214431      0.98875835249859      3.44460298734124
  C   5.74002982731266      1.05430964009336      3.78381737378685
  O   5.41409704653367      1.44883716685567      5.05341940951194
  C   4.59039798363740      1.05683587056270      2.82822724127628
  N   4.49880517850122      0.36800810045898      1.77073616055423
  C   7.84352609048564      0.21184518981781     -1.29499305548930
  F   9.13756879902221     -0.11639336527407     -1.43690094826353
  C   6.91380170907939     -0.33870178076946     -2.16908933864696
  C   5.55182346455485     -0.17396479980277     -1.94242463816377
  H   1.41228832664380      0.64471667796957      0.39244258383243
  H   1.89720323449072      1.42442180279406      1.91262980554277
  H   1.86505084100822     -0.33244863386641      1.81388949586714
  H   5.76970977744294      1.99961605913558      0.59554522232383
  H   8.93266487965566      1.92828298839266      1.24456978986482
  H   6.64468307799912     -0.02921944751797      1.67020990110754
  H   7.77806066089594      1.26060728325905      4.19447351793050
  H   4.50574540106994      1.21088001839334      5.26105360631254
  H   3.84810465175581      1.82837498260928      3.08472674282218
  H   7.26975567302719     -0.97393413698572     -2.96905463210915
  H   4.82680218039774     -0.69831528521306     -2.55080059866326
