30
Coordinates from ORCA-job 22447optt
  C   0.79469773890115     -0.54852337948586      1.38337656598529
  C   1.93334033403457     -0.15657275949751      0.43636646325128
  C   2.65920737372279      1.11278817774935      0.79768560318542
  C   2.60465022319589      2.23465115517800      0.05149725953882
  O   3.33345732702604      3.34272451203776      0.32623710987839
  C   4.21627423298370      3.43958428269215      1.37889853062275
  O   4.84647517934850      4.44603021491397      1.52230718920366
  C   4.26913223910006      2.25585170847897      2.19797336989531
  F   5.08474183100076      2.33694337855772      3.25532838053861
  C   3.55446178607626      1.12947111128076      1.94264158045710
  N   3.61162197308114      0.00618590630227      2.74774130710193
  C   4.74849027233323     -0.40529798236081      3.16161244617763
  N   4.86484579496649     -1.43193549405502      4.01942424867780
  N   1.83713859279120      2.40947141153631     -1.10054575500793
  C   2.48956468661246      3.03931307942799     -2.24400328018401
  C   0.44786008386873      2.41908175042098     -1.03708866842280
  N   -0.30940069458189      2.27670698839956     -0.03786727418069
  H   0.41313244974530     -1.53174052626791      1.10595630369061
  H   -0.03696130589705      0.15105478850212      1.32164311190795
  H   1.14743613057954     -0.59604141203000      2.41125932563003
  H   1.55200759125332     -0.06350304711356     -0.58040051765964
  H   2.67164395617284     -0.96219437941823      0.43263559889102
  H   5.69705380356388      0.01710160941461      2.82657978557445
  H   4.03427861950918     -1.83743118762965      4.41809014529877
  H   5.76232068002409     -1.71907864196890      4.36166783871864
  H   3.46301126831186      2.57876708935203     -2.40427651273582
  H   2.62668165690361      4.11165758236289     -2.09924716859419
  H   1.87549596374603      2.86965406762729     -3.12654289280272
  H   0.00367900120301      2.55579988856157     -2.02275679867475
  H   0.21766121042325      2.18748010703113      0.83080670403707
