31
Coordinates from ORCA-job 22445optt
  C   0.72962298058105     -0.39072696138326     -0.11365246948125
  C   2.21274746740319     -0.05950571088600     -0.07653921796513
  N   2.95680141747606     -1.15618035040629     -0.66568147489434
  C   4.22978003993713     -1.19144656338689     -0.73312713719221
  N   4.77869276794599     -2.33793974044295     -1.31609226695439
  C   6.10387986501790     -2.62321134202056     -1.43975437256296
  C   7.00435671328901     -1.73241696194994     -1.00760673015002
  F   8.32870269709708     -1.95482856439203     -1.10786173792767
  C   6.58503625277510     -0.48621633565138     -0.44356381286245
  C   5.24854251825768     -0.23557383814417     -0.31567213185122
  O   4.80025633625643      0.95242228243583      0.19836656707580
  C   5.75683920582374      1.66491945156121      0.95498402510516
  C   7.07818476306329      1.77190348628551      0.20686916738484
  C   8.11038092301799      2.54743930252654      1.02271460969720
  C   9.39468673397414      2.61313907620820      0.33117444775018
  C   10.42894461038819      2.63087196710931     -0.27251139713088
  N   7.53863045387953      0.41974765567254     -0.02342069551872
  H   0.13828127807535      0.41421177208281      0.32597020571865
  H   0.53449535029961     -1.30965841176528      0.44006214278825
  H   0.40175516785604     -0.54422686227862     -1.14230903659455
  H   2.51934555221386      0.11597527387627      0.95940687849634
  H   2.39237017756137      0.87571634692970     -0.61510796652634
  H   4.08393635954357     -3.00726953255770     -1.60908272673966
  H   6.38255756106279     -3.56498277126989     -1.88738206979903
  H   5.92445854646266      1.16048754898271      1.91311576735939
  H   5.33164157203310      2.65119205035717      1.13419858809480
  H   6.89671172661544      2.29981708577516     -0.73784581537383
  H   8.24327730250604      2.05871487453880      1.99131864189945
  H   7.74153362499334      3.55941616769171      1.20476429643772
  H   11.35180642544011      2.66079119651969     -0.80140148425038
  H   8.45674360915311      0.32041840798181     -0.43433279403276
