26
Coordinates from ORCA-job 22449optt
  C   1.55533500870315      0.26202065481953     -0.86861682011320
  C   2.68298022497282     -0.17484877278746      0.05343941041276
  C   3.05034241876442      0.89630409660492      1.08600877834146
  C   4.18426068997170      0.35065592915002      1.96866069728796
  O   4.22544039949400      0.47143472994242      3.15460404257088
  N   1.90586973753596      1.18489128660974      1.93228050498818
  C   1.70046452264495      2.34157573512608      2.35243047323000
  O   2.39606057330077      3.48330860382531      2.03721207157165
  C   3.26135912257984      3.37670874467252      1.00003594085962
  C   3.80014556529610      4.53341130914878      0.44913855279231
  F   3.45270816815083      5.71056507127666      0.94812466597089
  C   4.68102898412087      4.44162210841316     -0.60275899534985
  C   4.97220321258242      3.16892696099795     -1.07916754267178
  C   5.91255013280049      2.99259085605089     -2.22378399050250
  O   6.45390350053603      3.90711990610496     -2.78008935139621
  N   4.45394292301094      2.05220156317162     -0.57570815044338
  C   3.61589176667295      2.14954069965242      0.44721494776787
  H   1.29908930199402     -0.53668010386348     -1.56373044872482
  H   1.84266093003371      1.13621458215445     -1.45549116321515
  H   0.66393189676690      0.51112881232306     -0.29257285262122
  H   3.57682566376299     -0.41375425920276     -0.52413350602821
  H   2.38961398924101     -1.06812334510443      0.60988461509985
  H   4.99239263675246     -0.14463691347027      1.39724903788083
  H   0.89303360299911      2.57941307588603      3.03431928447119
  H   5.12613364857363      5.31898610017232     -1.05156527008225
  H   6.06983137873785      1.94042256832554     -2.51698493209688
