28
Coordinates from ORCA-job 22451optt
  C   3.34545872243884     -1.33775782079888     -0.33064017053621
  C   2.70037565799600     -0.04426951572161      0.15612605779425
  C   1.19869087132010     -0.22994326118753      0.41125807812506
  C   0.48539069921413     -0.61114916475503     -0.80490408362507
  N   -0.04294409800391     -0.90525590587446     -1.77801934970918
  N   3.26770381371878      0.48676155601258      1.39502245054093
  C   4.70528903583886      0.78599308712646      1.35385265635793
  C   5.05747381010379      1.68704764038930      0.18508736449460
  C   5.04607040791852      1.44404797267233      2.68545303483261
  N   5.38058395326476      2.68734030469955      2.68523679052742
  C   5.71384461266783      3.42144687729016      3.79668012923998
  O   6.09487091571166      4.55026923862393      3.78557325327598
  S   5.56669876764867      2.68699915361931      5.47200391817264
  C   5.15655066815793      1.06787844489067      5.09538858411959
  F   5.04959273978143      0.26131950657368      6.13418270455679
  C   4.95984468032798      0.60769666310270      3.84937568400986
  F   4.66618052516043     -0.69066748468301      3.66899880476689
  H   2.86226821693259     -1.69468502918768     -1.24084886118538
  H   3.25831547368001     -2.11438012526702      0.43393062763564
  H   4.40371216029383     -1.19243775418016     -0.54928068171077
  H   2.80399558156072      0.72475105862393     -0.61067714232222
  H   0.77768572241524      0.69945031761865      0.79566972592876
  H   1.03765053409152     -1.00757593458936      1.16342792535880
  H   3.08623130867380     -0.18060927286070      2.13918671917196
  H   5.31034949703594     -0.13104086765030      1.29541742741994
  H   4.40482106651658      2.55919163477946      0.16850259461061
  H   4.96537806698278      1.14713575507750     -0.75618056099792
  H   6.08291658855100      2.03744292565553      0.28017631914645
