29
Coordinates from ORCA-job 22477optt
  C   1.76136734506574     -0.54460800688080      0.55923485816517
  C   2.85378913796064     -0.34405559530334     -0.46534660509211
  C   2.70469008397212     -1.15156665621744     -1.75681231744516
  N   4.02948922595929     -0.99776412782428     -2.36908965738301
  C   5.04739589408237     -0.73903209046312     -1.34549563115953
  C   6.22657179318955     -1.68269548570345     -1.43351991983128
  C   4.21812158667434     -0.87961544857373     -0.05956791411263
  O   4.54066667606178     -1.39277502384715      0.96825487815344
  C   5.41031789859240      0.80100418186293     -1.40296967649701
  O   4.45671374777590      1.53281945397357     -0.66164896271611
  C   3.10040081221884      1.14642543637833     -0.83768088533174
  C   5.51219222424326      1.27034640351567     -2.79021121774407
  C   5.61757426071599      1.68277343837961     -3.90751333754100
  C   6.73166177950966      1.13937961355344     -0.68160141461147
  F   6.75725951833086      0.61506576419444      0.54305932121528
  F   7.78976667698338      0.67184554858971     -1.34929951031389
  F   6.88523024345524      2.45296013735968     -0.56656483696831
  H   1.63770800915047     -1.60240703859097      0.79135066156121
  H   0.80988369616387     -0.15755374946670      0.18965659636575
  H   2.01131470600553     -0.02594869208621      1.48501303212635
  H   1.92738082366475     -0.74605513542288     -2.40830609834721
  H   2.45180508729271     -2.19073116225365     -1.51603650069990
  H   4.29025820382564     -1.73671499879261     -3.00425180625043
  H   5.85346101934517     -2.70706505733427     -1.41073750636388
  H   6.90379250425531     -1.55384272801566     -0.59274549249139
  H   6.77706885909010     -1.52432823060025     -2.36159978376743
  H   2.79049398334550      1.33926957593486     -1.86960239819392
  H   2.54183415611288      1.79597115573562     -0.16663496254069
  H   5.70979004695665      2.05189851789867     -4.90133291218502
