33
Coordinates from ORCA-job 22470optt
  C   0.87498340401494     -0.56050072190066      0.10184760266767
  C   2.24943760266815      0.10677868514909      0.10725251486606
  C   3.38456408977652     -0.91986031976862      0.13687791209392
  C   3.55558493231623     -1.62074166204308     -1.20319097300041
  N   3.76590226838214     -0.63664069347075     -2.26988839377443
  C   2.61718788055238      0.27122951286415     -2.40342279154847
  C   2.44916989365083      1.04340637332064     -1.08764050009003
  C   2.81277154405182      1.20242628102430     -3.51492720513024
  C   2.95557687058572      1.98174055363567     -4.41271147916483
  C   4.30053616300996     -1.20401379874341     -3.46047795732161
  C   5.68379159756226     -1.23338110392002     -3.61882072402744
  C   6.28020803513737     -1.79408220434902     -4.73641400607301
  C   5.49184985450725     -2.32998981400096     -5.74681712333430
  C   4.12723145283209     -2.29720001335867     -5.58588684614246
  F   3.31539108679760     -2.81450465813892     -6.53543197991637
  C   3.50651860855748     -1.76399848482283     -4.46335930495936
  O   2.15618951557093     -1.80003560521399     -4.33433983908922
  H   0.74411488021532     -1.17223497079226      0.99610230651433
  H   0.73620925261854     -1.21005581879712     -0.76341114242544
  H   0.08063975471782      0.18743869274805      0.08529922164588
  H   2.31571713401125      0.71316954208908      1.01472781498530
  H   3.20179845068082     -1.66428131747938      0.91582860109510
  H   4.32325256513705     -0.41332397456981      0.37488602308958
  H   2.68524516489392     -2.25589558126106     -1.42841352913830
  H   4.43128795596135     -2.26920498494339     -1.17589681699062
  H   1.69679266364835     -0.28986591354890     -2.60802991553098
  H   1.60128533780880      1.72408061830743     -1.18618627104444
  H   3.34856149187247      1.64540159021003     -0.94235693206939
  H   3.08596842857064      2.67533400351571     -5.20835956928208
  H   6.28089343489690     -0.78465359839223     -2.83577106413504
  H   7.35685398992286     -1.80006223075694     -4.83345287594142
  H   5.91018173343318     -2.76447906598533     -6.64417340940140
  H   1.77430296163697     -2.17799931660679     -5.13544134742651
