30
Coordinates from ORCA-job 22485optt
  C   0.92825328349057     -0.10845330243212     -0.22348073147191
  C   2.45049274077438     -0.06344152776025     -0.13586070333396
  N   3.10101933902037     -1.26433626468585     -0.66012278057714
  C   3.01730990337885      1.17041257620015     -0.86888376602179
  C   2.52355191917490      2.49946473727491     -0.25827382334578
  N   1.31889543292805      2.95876922134476     -0.94263653304543
  C   4.52720680450390      1.11348769654528     -0.91701568527142
  C   5.26980455515777      1.21178011004600      0.24991099366137
  F   4.62152520346900      1.41010291352431      1.40273129960354
  C   6.64293552647622      1.11864709077488      0.27320748461904
  C   7.27840866672871      0.93525465527955     -0.94373222335683
  N   6.62257726809041      0.87025518145671     -2.09468374526320
  C   5.30147894152983      0.95861464494688     -2.06738059524384
  C   4.62987119462541      0.90110273102322     -3.43194123421216
  F   3.91046604341398      2.01584418428063     -3.66346117788158
  F   5.49391958958180      0.77617421096209     -4.42229744830223
  F   3.76992644648181     -0.12920102169781     -3.52055691318822
  H   0.55693931589043     -0.99293539218070      0.29762477886910
  H   0.61418751024496     -0.16605181323471     -1.26829651629287
  H   0.46339039062385      0.77633354217271      0.20956791950715
  H   2.74007927455220      0.01437480825255      0.91537716811022
  H   2.87311990505840     -1.38794163393936     -1.64224843046185
  H   2.76129286425675     -2.08623343620196     -0.17408382653805
  H   2.63495386122738      1.13231618461686     -1.88953225525634
  H   3.33810541495173      3.23241927078455     -0.28861237843892
  H   2.27981428485915      2.34501372016459      0.79501023984668
  H   1.53740248413079      3.22850725530616     -1.89534439772775
  H   0.93716282859010      3.77676453713928     -0.48334883763963
  H   7.18395808901600      1.18531030867681      1.20660960107278
  H   8.35695091777216      0.84664481135985     -0.99424548241896
