30
Coordinates from ORCA-job 22486optt
  C   1.03786040227174     -0.11114162958198     -0.60440630075532
  C   2.52624845279492      0.00929007365556     -0.43736341120289
  C   3.14534144316632      1.22120531468291     -0.10530883810520
  C   2.27871428491166      2.44555984989622      0.09091316788654
  C   1.74080171964655      3.01382972200448     -1.21769489652946
  N   2.70783794953051      3.27827147934371     -2.14487550465889
  N   0.51202871139763      3.21801804764585     -1.48127101478659
  C   4.53646135496948      1.27959709072205      0.03782590453441
  C   5.20190138873174      2.58272750863984      0.35869885452772
  O   5.94956340259099      2.60360235966645      1.47745184133954
  O   5.11023309703501      3.57408718623505     -0.30904326724121
  C   5.34951331003863      0.15445164391055     -0.15414042831949
  C   6.85292329717727      0.16477300647773     -0.05602306950703
  C   4.70277469932629     -1.01092611096290     -0.49494290726795
  F   5.41788344788890     -2.13451328718021     -0.73012972994682
  C   3.32644143318613     -1.11268888994067     -0.63571955952697
  O   2.76416644368192     -2.29626547547970     -0.97174886043992
  H   0.69688362104866      0.46974051467428     -1.46317189444992
  H   0.51314373034471      0.27118110275608      0.27310187300681
  H   0.75035593374310     -1.14854776727404     -0.74874039815247
  H   2.83632668418077      3.23839993020482      0.58987099078025
  H   1.42737360699353      2.20015186259339      0.72486504360945
  H   3.64865779798129      3.44657929017437     -1.81577050598325
  H   2.40077255187199      3.79846331965765     -2.95106020169309
  H   -0.08094569012337      2.91777956738751     -0.71399850385779
  H   5.87897156991209      1.75893829197656      1.93851723349364
  H   7.26147549455434      1.14840871338944     -0.27955001384836
  H   7.27857284420657     -0.55353373802536     -0.75358594814728
  H   7.18938100203128     -0.12204171720334      0.94335961414674
  H   3.45533601490925     -2.96239726004635     -1.06705926890521
