29
Coordinates from ORCA-job 22484optt
  C   0.85842860380606      0.17024572216234      0.56944875567707
  C   2.36467439629701     -0.02436421323061      0.39064706603779
  C   3.15371123739252      1.26697132687253      0.70246017782058
  C   3.11099245245017      1.73741831623275      2.15033145627289
  O   3.57423055578260      3.06350642113112      2.27576254825661
  N   4.54860223950636      1.14050904079908      0.30237151915544
  C   4.92192732114312      1.20471001274835     -1.00308301151440
  O   4.17111621277658      1.47095644358452     -1.90986065217327
  C   2.85794730112797     -1.19128887755727      1.18073723503910
  C   3.60504109392683     -2.18188794526977      0.72741503463834
  F   4.02902785335444     -2.29397749963280     -0.51502793692972
  O   4.04280092295021     -3.23393159767500      1.46247666105055
  C   3.81049652382770     -3.22494676161704      2.80775842943696
  N   4.24585984151870     -4.11704562068933      3.56711889207902
  C   2.99180618504513     -2.08787714287929      3.37817390180005
  N   2.75752377629196     -1.94539946663626      4.59685924764648
  O   2.47165441776603     -1.18924865659792      2.50546911217456
  H   0.53026640093671      1.04477385552056      0.00728134639802
  H   0.59123090233309      0.30839130362363      1.61595656819500
  H   0.31688267780282     -0.69897920096667      0.19728257410030
  H   2.56806463631809     -0.24118225287968     -0.65972899738231
  H   2.72476901649281      2.05468577496716      0.07943536410979
  H   3.69205895346666      1.05845669543067      2.78742749013662
  H   2.08746574476668      1.72819608963235      2.52001647788174
  H   4.40706007051905      3.14664729826103      1.79942530030972
  H   5.20232957812300      0.73877134118761      0.95802609355512
  H   5.99357734151790      1.00229947168902     -1.15650239408621
  H   4.77962446020334     -4.82187733161675      3.06139431116573
  H   3.19282928255638     -2.70753254659429      5.11492742914841
