34
Coordinates from ORCA-job 22483optt
  C   2.72454833970042      2.44994364607125      2.59137779394447
  C   2.38244286141583      2.47897671965693      1.10695721493235
  C   3.05948487172232      1.37153169899719      0.27803166877201
  N   2.54634460996593      0.06068696383429      0.73855461160841
  C   2.64205791631973      1.51956858344356     -1.19766433097532
  O   1.25676026214260      1.29805357817000     -1.38751445650262
  C   4.59589253238299      1.35123143665782      0.30264709453723
  C   5.28338213450030      0.21645035740888     -0.06676007889351
  N   4.73237804243388     -0.93966202899061     -0.53232854372947
  C   6.75954293574003      0.14024603281523     -0.00616484758481
  N   7.39714762970406      1.30178299800615      0.36176073067780
  C   6.71318220204575      2.45558000222375      0.61850750026258
  F   7.49088661320428      3.53161669450032      0.83116212847575
  C   5.37927569120900      2.54062177333287      0.58666053173960
  O   4.77733065174182      3.76058625531930      0.74176648902609
  N   7.35183880030618     -0.96718362128661     -0.25895108138122
  C   8.78915877316337     -0.98820177422435     -0.16079890006186
  H   2.25256334142261      3.28624853100147      3.10715632685721
  H   3.80021957032611      2.52391974945506      2.75573437729617
  H   2.37032500694149      1.53477027643861      3.06973877166430
  H   2.60769759415480      3.45540878675194      0.68956451148276
  H   1.30784644463582      2.32792017461782      0.97276834006166
  H   1.54454988018377      0.14802663716167      0.87453689111192
  H   2.94478485296976     -0.16017727822342      1.64581710067716
  H   3.23122257257229      0.83360637665001     -1.81107306860003
  H   2.85144239028478      2.54096294778127     -1.51853466992691
  H   1.11269406886701      0.34914281403968     -1.44255624573127
  H   3.76307932732785     -1.10669346314178     -0.30568233119528
  H   5.38408656787397     -1.71104197120498     -0.57106779560427
  H   8.39875441914872      1.30185437446836      0.47705870749104
  H   5.46207292790420      4.42829157962070      0.86094423962671
  H   9.15659394277467     -1.98384105375544     -0.39894638510137
  H   9.14153360008104     -0.74096112446470      0.85190567223593
  H   9.26387862483235     -0.28426667313231     -0.85960796719326
