32
Coordinates from ORCA-job 22480optt
  C   1.01281102748050      0.30861688433217      0.17852384583058
  C   2.51800583591667      0.07095377956549      0.18984532353443
  C   2.93957903794540     -1.16369967461450      1.00065658136776
  C   2.31470660017728     -2.45935465785007      0.45906001516034
  C   2.74219978445806     -3.70336498788553      1.22690623528502
  N   2.38219568555142     -3.58317132406503      2.63793294457929
  C   4.42510242294516     -1.27282599526262      1.05683326922118
  C   5.26284925871910     -1.43297596853164      2.10832680423891
  N   5.05476390288550     -1.52308504330604      3.44834755406616
  C   6.09724562316844     -1.67394967927977      4.18372488164085
  C   7.43250669199862     -1.73962871634877      3.58754709695040
  F   8.45173433724763     -1.87489647288796      4.42230694447856
  N   7.68150613345280     -1.68207677328701      2.34843714626555
  N   6.57721268395139     -1.54910407772680      1.58614435835193
  C   6.57826005798610     -1.45420630738318      0.20385696749703
  N   7.51246972990531     -1.48702621128449     -0.65483255909323
  N   5.22704776230642     -1.29974188580217     -0.07126349511783
  H   0.77900856576287      1.26174694000065     -0.29543783785506
  H   0.61641533664630      0.33160737053705      1.19537550365638
  H   0.48438767872503     -0.47057847489213     -0.36986323844759
  H   3.02476975155652      0.94442627123794      0.60615137776911
  H   2.87456988360504     -0.03104815497876     -0.84074368042490
  H   2.59967294342723     -1.02764322841327      2.03134773659494
  H   2.57858769053423     -2.57487922299662     -0.59808647185731
  H   1.22937192556648     -2.37268222195738      0.52259645293470
  H   3.81412164756601     -3.88143969540583      1.06726042564871
  H   2.21367269725670     -4.56450648081523      0.81571400184861
  H   3.01627131388967     -2.95706621754884      3.12406725042265
  H   2.44444748109145     -4.48037863781004      3.10165383588977
  H   5.99633117881031     -1.75330442267785      5.25938298062949
  H   8.41422673471430     -1.60356414639351     -0.20333580873019
  H   4.91094859475198     -1.17815256626820     -1.01843644233627
