26
Coordinates from ORCA-job 2249optt
  Br  2.52780155557704      0.71551038277128      3.28883223362244
  C   3.39907225974038      0.62624383126927      1.61529013638613
  C   3.44110855451454      1.68619380873364      0.78780086606177
  C   2.43636832854895      2.78773720361919      0.77923559061833
  C   2.30494647660032      4.26613217995793      1.03833760482338
  C   2.49170758965921      3.78184290797644     -0.36449131854445
  C   1.63634113560055      3.29958286702828     -1.46867113291839
  C   2.24840820028206      2.81021104271684     -2.54864237931568
  C   1.73490477882884      1.69092879551844     -3.39677182476260
  O   2.11812830611510      0.42435252182004     -2.83979692498405
  C   3.50405307428161      0.18278422314189     -2.65308714982693
  C   3.83551404019201      0.18630897261611     -1.17058358674716
  N   3.82199682295953     -0.91036546251442     -0.51449648834636
  S   3.89560042112750     -0.96627662953387      1.14569320742500
  C   4.17212339308016      1.47504473589740     -0.48855196660433
  O   4.95025329887454      2.25711520552803     -0.97816511080463
  H   1.45299995888342      2.33271423575176      0.86609483491036
  H   3.14363989469726      4.82365166998747      1.43163165212359
  H   1.33794662690756      4.56913332133681      1.41584889630746
  H   3.50564140394794      3.96570495118597     -0.69251605253396
  H   0.59350733322782      3.06902553428108     -1.26453847717748
  H   3.29652129333564      3.05786315616811     -2.68639815786285
  H   2.10500461812736      1.75723898579809     -4.42449672593447
  H   0.64599176647718      1.66240604382960     -3.41602914777393
  H   4.11827775364647      0.92176856654421     -3.17293582883073
  H   3.72314111476696     -0.81185305142960     -3.04159274931044
