30
Coordinates from ORCA-job 22506optt
  C   2.29356728763037     -0.35581161651019      1.58668572437589
  C   2.50664746879419      0.06882642799283      0.13760823617320
  C   3.44580065964259      1.26166612134378     -0.01930644651070
  N   3.53124125572165      1.71483539082030     -1.31109294517214
  N   4.09944362976205      1.84103904028774      0.90344586215079
  C   3.02154404091198     -1.09066226941333     -0.70585089383352
  N   2.36479602073358     -1.70282922531261     -1.61468271263986
  N   4.29226816620503     -1.47898148262056     -0.40870257400290
  C   4.92586409958335     -2.50101967955722     -1.19186292667564
  C   6.40084186222138     -2.57069994115970     -0.88782318006369
  N   6.95600104827796     -1.65175920251444     -0.20161210443710
  C   8.31274136939108     -1.65927476535465      0.05794363678099
  C   9.18188204164207     -2.57245453234113     -0.38647973713627
  F   10.47972839369889     -2.45311502793498     -0.08183266136793
  C   8.87835248338186     -3.74127902699176     -1.20266244626871
  N   9.69334277682685     -4.60322213549836     -1.63706974124082
  S   7.16807511195489     -3.96828030161501     -1.59916932622373
  H   1.86367834741050      0.46035380256462      2.16736022679553
  H   3.22960196713923     -0.66407721846043      2.05355711528420
  H   1.60893365529824     -1.20248877313106      1.62506002007654
  H   1.54697762460415      0.36394684716531     -0.29247794186117
  H   3.29401701126629      1.08504578283734     -2.06037712475353
  H   4.26831261339339      2.37616340215124     -1.49630409372307
  H   3.89667650900161      1.43906170424266      1.81254402893965
  H   1.42612575196494     -1.32616094327624     -1.69881721076421
  H   4.90644977230831     -0.86043262228811      0.10440137024594
  H   4.79598575197534     -2.30689957685076     -2.26375417484193
  H   4.45930544161034     -3.47414668023240     -1.01058178054650
  H   8.68255778627824     -0.84108448531729      0.66297560939433
  H   10.64324005136959     -4.38625901302555     -1.33812180815361
