28
Coordinates from ORCA-job 22513optt
  C   0.97853930961361     -0.76811580094229      0.32810647919915
  C   2.43693196862470     -0.41821470829252      0.31723743139426
  N   2.76937762997484      0.69069078296909      1.01908627290172
  N   3.24567403988838     -1.14563130277957     -0.36641603571240
  C   4.61888783559288     -0.91363625460946     -0.37792873259213
  C   5.25131035471962     -0.83161023331577     -1.63641383676037
  O   4.49378904131122     -0.89797506721009     -2.75621785997760
  C   6.61251107700627     -0.69402961291571     -1.72030336612815
  C   7.41992173727037     -0.65456305326221     -0.57022483059483
  C   8.88660639898843     -0.61539281935231     -0.81711220370399
  O   9.33576138643725     -0.42211554584005     -1.92464049416301
  C   9.87689684825927     -0.86009343896004      0.31975623148944
  O   9.86726204844081      0.20509760449740      1.26697758818246
  C   6.81769114823392     -0.72613847694992      0.69339093283707
  O   7.43681773604311     -0.68342425163656      1.89253777268362
  C   5.42908500773865     -0.86836969992551      0.74382227694897
  F   4.85716884573253     -0.97251924826147      1.95406914218348
  H   0.68318494178869     -1.07690361601472      1.33245839376823
  H   0.79767443161205     -1.58519074908161     -0.36277388285038
  H   0.37367639137088      0.09506029525495      0.04697819890865
  H   2.08393023244461      1.13279812194777      1.60459769208381
  H   3.73474912588621      0.91860099956805      1.18718308365237
  H   3.59186223935273     -1.11564703559028     -2.47596594619781
  H   7.09021783211617     -0.64038971176552     -2.68859311021362
  H   10.86367830800170     -0.97762714561772     -0.12646432805881
  H   9.61130297871984     -1.75907864706013      0.87668573805261
  H   10.11690543241440      1.02519052893888      0.82731207588066
  H   8.28158567241675     -0.20077191379266      1.83385531678659
