27
Coordinates from ORCA-job 22536optt
  C   1.43364718010499      1.38337281027924     -0.52995528973695
  C   2.19225959436998      0.12959059133464     -0.09079209693547
  C   2.84646048713131     -0.65197472965850     -1.21467640419824
  C   3.69271200149897     -0.02298959954841     -2.13308970594704
  O   4.04633153926021      1.28161700732993     -2.05507028430950
  C   4.19798340621776     -0.72952325299702     -3.22598061869846
  C   3.92178950880408     -2.06746239862814     -3.39816503099737
  C   3.13659145038802     -2.69735121330579     -2.45360191824818
  F   2.88571636207499     -4.00658050856382     -2.62312176369880
  C   2.58274384256231     -2.03164596698326     -1.36695341632509
  C   1.74296439140925     -2.86087389838494     -0.45675722111352
  O   0.95183385924388     -2.45398345482804      0.35703845461438
  S   3.43547854017488      0.48346182624889      1.15784140921536
  C   2.54086485567790      1.21907698358733      2.49745043025732
  O   3.98615229591498     -0.76100370465301      1.61489699771488
  O   4.33355090912838      1.49926235924141      0.63359664122743
  H   0.78658139503329      1.11795599513433     -1.36559245357307
  H   2.09305947266384      2.18414002533550     -0.85456624940596
  H   0.79891735471544      1.74544190266763      0.27821567954916
  H   1.51144548490409     -0.53843731011020      0.42956379059988
  H   4.21765674863580      1.53249494131013     -1.12666285989206
  H   4.82948205101146     -0.19288693090486     -3.92104469350011
  H   4.31229719637505     -2.63276516811077     -4.23284176937972
  H   1.88307426649558     -3.94327535447482     -0.58792565632420
  H   1.76110035697128      0.53173395316005      2.81875612114228
  H   2.13838649499067      2.17838478120969      2.18397239143592
  H   3.27691895424154      1.35522031431283      3.28846551652718
