31
Coordinates from ORCA-job 22533optt
  C   3.19369731973377     -0.85110486781225      3.76926376826834
  C   2.68750935062036     -0.12611664244299      2.53058714209258
  C   3.15826942475050     -0.81313852231665      1.24478484864007
  C   2.63665640966127     -0.12610554074663      0.05533385381019
  N   2.19767913457833      0.41553880342260     -0.85273755437438
  N   4.61945200768227     -0.88505717290298      1.17619480326436
  N   5.23282527488001      0.29991044100484      1.10496365286812
  C   6.52254727060095      0.34112439397377      1.09290985740102
  C   7.21437801276618      1.66277507675653      1.00670473077038
  C   7.27144520113365     -0.87936332692020      1.16589413267795
  F   8.59736669506941     -0.75165602696456      1.16148615305811
  C   6.69215263535293     -2.09010085989912      1.25765819594324
  C   7.43031601133844     -3.38646271135098      1.33207991519611
  C   7.36296520581485     -4.14862870836541      0.00530698371881
  O   8.01692792857498     -3.45774718904262     -1.03997392888564
  C   5.23407191265605     -2.12946661355804      1.26968152824905
  O   4.58506303781845     -3.15741904653571      1.35996149843061
  H   2.79372535208469     -0.38767349565772      4.67009801699195
  H   4.28248470916131     -0.81187338091874      3.83102416620092
  H   2.89562113329613     -1.90047145455849      3.76105946667314
  H   3.03132168005017      0.90892053952088      2.51313733299081
  H   1.59674651375353     -0.10780863428821      2.51006081433319
  H   2.81520018631836     -1.84754094438111      1.22349905342021
  H   6.47003044525089      2.45111209943436      0.93442107829954
  H   7.86561834844576      1.69733873425577      0.13246966565754
  H   7.83991523839927      1.82794599006388      1.88480123569885
  H   6.96903019634194     -4.00230854087645      2.10694225803192
  H   8.47347513683773     -3.20459423532954      1.58691560511349
  H   6.32080324219764     -4.36209956406737     -0.24439957326429
  H   7.88580450715574     -5.09761673319244      0.11918542604440
  H   7.44590047767435     -2.75531186630441     -1.36331412732064
