29
Coordinates from ORCA-job 22531optt
  C   2.40728409618796      0.51803408380888     -1.18696290162883
  C   2.17160985276104      0.00371814309005      0.22047963877108
  C   2.57131479634239      1.08011914076396      1.28921884884722
  C   1.56416117790921      0.95032069854091      2.39892463215773
  C   1.66129488994182      0.74646660188885      3.87141390731734
  N   1.53211340228981     -0.36853201214552      2.97230468759981
  C   0.35834708552552     -1.13333260211429      2.62583813525586
  C   0.57680687477196     -1.49404071519645      1.14096028988611
  O   0.76749379093916     -0.32524472890571      0.33976756551244
  C   1.88536638562362     -2.21699243577904      0.97109974161551
  N   2.12587619140884     -3.47153333670650      1.31915231495478
  C   3.36408988075285     -3.86538951427474      1.14447559248658
  F   3.62344383430556     -5.13005609623145      1.47884007821026
  C   4.40635930812106     -3.09209353440393      0.65271005349846
  C   4.12398015844080     -1.77612243538406      0.31136756233297
  C   2.82466367918488     -1.33302112325919      0.47283161086551
  H   3.45172986262537      0.81378221301756     -1.30647254773346
  H   1.77864693325129      1.38975978577572     -1.37078724614362
  H   2.17039716364531     -0.25289118455470     -1.91925203548713
  H   2.54420392883887      2.07521175645554      0.84080462027795
  H   3.58663358800142      0.88585897737927      1.63931821437414
  H   0.58865127717657      1.33564501919672      2.11129470055545
  H   0.79482598258719      1.07237535405650      4.44171866305999
  H   2.60523829290639      0.79111659142362      4.40086955154498
  H   -0.57625103648122     -0.56643791074367      2.73698198153417
  H   0.29903671257560     -2.05125022393233      3.21456581977898
  H   -0.27352882375420     -2.04819281253583      0.74287823282883
  H   5.39161306809824     -3.52264807246572      0.55076140497770
  H   4.90659764602268     -1.12762962676445     -0.06510311725081
