30
Coordinates from ORCA-job 22546optt
  C   2.14741191551414     -0.40995411759606      1.68422777399298
  C   2.41910885278081     -0.02303412824801      0.22152697177051
  C   2.10654785481445     -1.24051730175566     -0.64848837788345
  C   3.41061368198513     -2.09298907785140     -0.48531569075048
  C   4.52612996803091     -1.15561779109037      0.08844157078494
  C   3.88840234627160      0.19678842285789     -0.15261883119749
  C   4.24487922741159      1.59891308730254      0.34247503629504
  N   4.74914387282699      1.68100695440506      1.71454946330308
  C   2.89001267309076      2.26891654758214      0.10384726914029
  C   1.88959564343852      1.38103750659636     -0.00882543889927
  C   0.50693024622262      1.66106766094861     -0.18936796105281
  C   -0.66840504665631      1.83686033085846     -0.36019697961527
  C   3.81128464655130     -2.68717378646915     -1.81009296454591
  F   4.13375785754754     -1.75123001030480     -2.71902237976369
  F   4.87403985127415     -3.49593139812911     -1.70052423698591
  F   2.81513958416257     -3.41080648608549     -2.34229034997496
  H   2.55466441930224     -1.39397935591970      1.92033694608906
  H   1.06732246312314     -0.45119062866215      1.84070360348180
  H   2.55758258321713      0.30641731156157      2.39235028450347
  H   1.97087971896097     -0.95078729008029     -1.69142505251268
  H   1.22378758553703     -1.79496839905689     -0.33352011901571
  H   3.24065348906242     -2.94617145364869      0.17198223770423
  H   5.47467409058803     -1.29336496708561     -0.42880766970269
  H   4.69180140645224     -1.35132180396262      1.14663322607627
  H   3.86375287358520      0.31655445808983     -1.24135318457298
  H   5.01284404597373      2.03851143383288     -0.29576617271585
  H   3.99751020770040      1.67586406730376      2.39166560508646
  H   5.26539730144214      2.54014710748421      1.85385687212335
  H   2.75980231049676      3.34367040589720      0.07314575341757
  H   -1.70726567070825      2.00328270122548     -0.51712720457991
