25
Coordinates from ORCA-job 2255optt
  Br  1.29195554962716     -0.15531438177273     -0.38622265198871
  C   3.15968824179906     -0.05326802435025     -0.16425631612524
  C   3.80525895446610      1.17285912282020     -0.00390421567567
  C   3.04775842987090      2.44931057740619      0.04652489021550
  C   2.78535369691975      3.26272441158053     -1.19618833562440
  C   3.81197661810711      3.71099162990885     -0.19845415433203
  N   5.19555863957691      3.51130540131010     -0.54075762182269
  C   5.86121696936102      2.54340128884403      0.32091045183532
  C   5.19552071195516      1.19881369013340      0.15654998387565
  C   5.93640455092788      0.02365655712176      0.15292319176685
  C   5.27949885195885     -1.18343645848181     -0.00331077632897
  C   3.90209264444084     -1.21706819896993     -0.16186468564823
  O   3.36023175680962     -2.45708459093624     -0.31878531882900
  C   4.29733793169924     -3.45884364942624     -0.29517484265543
  N   4.05350116779092     -4.67714778474174     -0.42427840466561
  S   5.92605320129977     -2.80693835424787     -0.05758515083421
  H   2.26885127193720      2.48264640333690      0.79747329507615
  H   1.84141833980300      3.78595348637898     -1.25279845620211
  H   3.17861268377123      2.87893969734048     -2.12663186290218
  H   3.57000335497797      4.55909658559076      0.43437328372111
  H   5.69749563743052      4.38607888778987     -0.58874177166020
  H   5.83506673063253      2.83071979403336      1.38307549382396
  H   6.90780318087096      2.47106651680749      0.02482577589056
  H   7.01273054064486      0.05623739590355      0.26597597026513
  H   3.05861034332139     -4.84970000337965     -0.55167777117554
