26
Coordinates from ORCA-job 22550optt
  C   1.29688708156200     -0.31203392388518     -0.62806550295084
  C   2.80219286830116     -0.19069677559793     -0.44907139581581
  C   3.30316228420404      1.19863311326273     -0.85137923615112
  O   2.74965043021523      2.21941746833279     -0.05684850855332
  C   4.79632876674542      1.25432929322815     -0.78484146565700
  N   5.50438862806456      1.79844366125501      0.21586319758218
  C   6.79068795312597      1.60956831687076     -0.06630409305615
  O   7.78521701633756      2.03154000219918      0.72231698694357
  C   6.93830362149984      0.92455702278067     -1.27399800490786
  N   5.61043348201227      0.72090751107144     -1.68643703089229
  N   5.26738329095610      0.05558203503736     -2.81832702686884
  C   6.29295322379001     -0.34506487158540     -3.48460763781045
  F   6.01301517247236     -1.00780136434883     -4.58429185190389
  N   7.61406371658044     -0.20218340055438     -3.23819564092643
  C   7.92296012318721      0.42948985583045     -2.13730810520033
  C   9.38345403224028      0.63424552314220     -1.79719963945524
  O   10.25859257279360      0.31783018379592     -2.54243965785123
  H   0.94294628012641     -1.28999981767279     -0.30402791069586
  H   1.02506546270622     -0.18651486142974     -1.67776256992753
  H   0.77944971467482      0.45279967555753     -0.05017082170004
  H   3.32076265950650     -0.93415830793741     -1.06014988543269
  H   3.08694418834083     -0.36463081503982      0.59272370339250
  H   3.00067807861580      1.39422265180579     -1.88446067031898
  H   3.31954781527136      2.35000912714674      0.71130252683086
  H   7.39462413132106      2.46793111598165      1.49075254764982
  H   9.57230740534886      1.10257758075311     -0.81707230632304
