31
Coordinates from ORCA-job 22552optt
  C   2.95228533102621     -1.56550050373174     -0.57162841425218
  C   2.65911888832999     -0.21156025764274      0.05979437409857
  C   1.16822075416888      0.10326380658635      0.02011720413677
  O   0.63951944774728      0.15481449996422     -1.29235876352838
  C   3.14166899545229     -0.15014836781959      1.51153751295913
  N   4.58173582719209     -0.28281793294488      1.59642498276001
  C   5.07902511306003     -1.35766347838820      2.03745138531727
  N   6.49488142253279     -1.42249820168337      2.09793030264114
  C   7.15535831964774     -2.51227830275248      2.49642452637108
  F   8.46382002916764     -2.40313061301025      2.46992636001253
  C   6.50767780374135     -3.63428757563022      2.90851567829848
  N   7.20650519565420     -4.78952430959328      3.33153810009506
  C   7.28562361046585     -4.94152871620803      4.78188410205916
  C   7.87139610914860     -6.23957376944384      5.12542007817128
  N   8.30243547977199     -7.26863623397134      5.38175706160147
  C   5.08147146828198     -3.51357910369386      2.87344291772191
  N   4.40370627358130     -2.49050637509193      2.47573342901869
  H   2.56508662202105     -1.60999825580766     -1.58899935752054
  H   2.47959451903247     -2.36117625861222      0.01007434391864
  H   4.02524300685100     -1.75911311633513     -0.59843559534620
  H   3.18907646640795      0.56969296359773     -0.49961381248767
  H   0.97046856648099      1.04251156083434      0.55023452949458
  H   0.61344158027360     -0.68766598377422      0.53063319009963
  H   1.07513763218778      0.86537097607532     -1.77201991948058
  H   2.62349051017076     -0.92096116654022      2.09109811107931
  H   2.87904324923886      0.82553147017628      1.92847415995722
  H   7.00081173285137     -0.60174415185474      1.79297010716035
  H   6.85705699838368     -5.63103080676898      2.89119414367155
  H   6.31254182000093     -4.86815076428222      5.28358773689587
  H   7.92485350372626     -4.15427060615108      5.18579808801039
  H   4.50670372340284     -4.38084042550187      3.20109343706538
