28
Coordinates from ORCA-job 22565optt
  C   0.87085634072386      0.23901516071318     -0.02705937529655
  C   2.39753633046086      0.13201836601034      0.01763325899207
  C   2.84496458826030     -1.32631418838659      0.07649197639019
  N   2.58488354672718     -1.86319766481440      1.39955431346573
  C   2.03645305499979     -3.11388368811518      1.61877866740760
  N   1.52281349516048     -3.93509917773188      0.80676744271142
  C   3.39030288861025     -1.27515223001998      2.44367001035722
  C   4.78478394783668     -1.78552946900079      2.39580923599540
  N   5.84566612694279     -2.20733251016083      2.30049386443826
  C   3.40712194628938      0.24306277713414      2.35434150650280
  N   3.89391857398922      0.85888448319786      3.42501125559862
  C   3.94742270226978      2.18349189518887      3.41396377360364
  C   3.51558328884509      2.90837222885733      2.32517436022395
  F   3.56820686699310      4.25155108662948      2.31351993886960
  C   3.01138213721534      2.27239444331545      1.20227287299391
  O   2.60058732399668      2.95980446823791      0.12043211202474
  C   2.95152209776262      0.87976253774222      1.20530276695103
  H   0.48538882877573     -0.21214076911297     -0.94233801092256
  H   0.55302452171994      1.28035224910652      0.00076085637006
  H   0.43388166292757     -0.28192655550835      0.82627428697927
  H   2.80876680727710      0.58451989514792     -0.88806897944802
  H   3.91220570511102     -1.41905852529337     -0.15803823978586
  H   2.29258006499965     -1.90398300065110     -0.66101882427786
  H   2.04258076772060     -3.37729879726643      2.67759070954749
  H   1.56656063663103     -3.63348914898997     -0.16348664446730
  H   2.97812558287341     -1.54421286526265      3.41735648050076
  H   4.34179618749728      2.69220773438537      4.28576627239732
  H   2.72308397738320      3.90618126464788      0.26904411187705
