27
Coordinates from ORCA-job 22564optt
  C   3.68681688675244      0.14092476678257      1.07539343472109
  C   2.49699586462757      0.00171433610990      0.12313421431471
  C   2.85183999846883     -0.67958253105568     -1.17148876758424
  C   2.77620729729952     -2.04981972625764     -1.28596405336687
  O   2.39443584756781     -2.88730085020480     -0.31286769656408
  N   3.08480526730349     -2.68799091620431     -2.41722443885827
  C   3.49131460316167     -2.05282708194132     -3.58129588854191
  C   3.76851483820465     -2.76946060447618     -4.70962256983807
  C   4.17025103547073     -2.06241773992633     -5.86896934701890
  C   4.28410206533225     -0.71492938743719     -5.87424895995291
  F   4.65189470450549     -0.08377394835615     -6.99622531536745
  C   4.02437559486263      0.12933801544526     -4.72266817754869
  O   4.13726757514071      1.34692449274530     -4.75384719329725
  C   3.60459424324984     -0.62193460779337     -3.51831870253743
  C   3.30218438853843      0.02424215915558     -2.32099214464844
  C   3.43347325783539      1.44108642667995     -2.17612668311263
  C   3.51208640542610      2.60780801727584     -1.91103815436470
  H   3.39597660211487      0.65927090351967      1.98946371434904
  H   4.48120629689566      0.71189165987338      0.59459683916038
  H   4.09652104704415     -0.83352213574453      1.35000624078357
  H   2.10205571005270      0.99043402033922     -0.10666230384751
  H   1.67379588076466     -0.52572868275856      0.61833698650184
  H   2.21443266080066     -2.39267927497131      0.49486437875017
  H   3.00513061198507     -3.69543676323442     -2.41526683090305
  H   3.67791839365942     -3.84646898135479     -4.72331189922149
  H   4.39201538269939     -2.60018001738336     -6.78222218759219
  H   3.60178754023584      3.65641845117329     -1.75343449441470
