28
Coordinates from ORCA-job 22579optt
  C   5.97544794444690     -1.90669517923822      0.73633535806771
  C   5.11622821545428     -0.66590783120144      0.75347797507143
  O   5.39598643776059      0.09029727175507     -0.41219452128583
  C   4.64293950305034      1.26529007419379     -0.49138903640309
  C   4.93350169042013      1.94277258696094     -1.80504368000067
  C   4.48495656532149      3.18228299448413     -2.05531798559175
  F   3.80449190510342      3.80050679887318     -1.08782200817319
  C   4.64534424913186      3.95460710643054     -3.28240386430120
  O   4.18875934465622      5.08226455741582     -3.37324104287161
  C   5.37041335911133      3.32161318127524     -4.39671398573054
  C   5.50545258797702      4.21452965726895     -5.61263295648376
  O   6.18626209747822      5.40402513986109     -5.28765308844050
  C   5.89272421171526      2.08176153647796     -4.30840189875018
  S   5.81880377039432      1.01394179665334     -2.94878091166964
  C   6.62525053336208      1.44814002368406     -5.47145939796720
  O   7.83858286386239      0.94638652179933     -5.18813577630038
  O   6.16585150098075      1.37117661177780     -6.56641543831961
  H   5.77742390127190     -2.51033556588526      1.62176117614991
  H   7.03122767744627     -1.63839354665249      0.72655122147845
  H   5.75990495767791     -2.50564897715632     -0.14779721404257
  H   5.32535082213999     -0.05479007307089      1.63955222417289
  H   4.05080237828666     -0.92562121569542      0.76844003726847
  H   4.88218648144885      1.95204884960568      0.32934340770291
  H   3.56756323318747      1.04772410798571     -0.43514436906190
  H   4.49816636312771      4.42315953600872     -5.98797216214683
  H   6.06246863308153      3.72411882467140     -6.40406557975079
  H   5.61260872021759      5.90189235079485     -4.69136762413072
  H   8.11030005188742      1.15685286092243     -4.28550885848978
