33
Coordinates from ORCA-job 22578optt
  C   3.44197985256023     -1.77113340436018      0.07453418489929
  C   2.88924633787309     -0.38687995315461      0.38305777263549
  C   3.01659672708324      0.55414775701538     -0.80980042922746
  N   4.41599369624112      0.79892899054767     -1.07596759590598
  C   4.93954636417824      1.18201399425596     -2.17236827131023
  C   6.43046341065358      1.28996590665164     -2.09500962995658
  F   6.92893905501505      1.10615037217854     -0.88471156306036
  N   7.27416473714410      1.50853249350459     -3.00189413929445
  S   6.86329242389472      1.77787767233173     -4.57126498368509
  C   5.11903683291471      1.80885836227944     -4.56901401840435
  C   4.35016048469247      1.53414670008339     -3.46819680726881
  C   2.85386689903354      1.61343235766631     -3.65382863924195
  O   2.29224205466288      0.34717789876882     -4.01336080132455
  C   2.46608387913085      2.60717416794294     -4.74886202280714
  C   0.96011103000273      2.65773304821472     -4.95958842977084
  C   3.18346930849394      2.22244207729004     -6.03016703548291
  N   4.61204423255686      2.16311339551617     -5.77482380269635
  H   3.36196106308298     -2.43535550025715      0.93517106797069
  H   4.49375628256750     -1.70357185203541     -0.20645785070264
  H   2.89717129514685     -2.23058112063711     -0.75415749048240
  H   3.42668055911311      0.05107131260723      1.22630033259030
  H   1.83530296398085     -0.45529378579455      0.66396771153192
  H   2.53430025568228      1.50750226404289     -0.56668952894242
  H   2.47504751153408      0.12397626018479     -1.65921751206487
  H   2.39449171840848      1.95379761801877     -2.72457306111036
  H   2.91389341433333     -0.34540095593214     -3.77196524166462
  H   2.82766411213863      3.58992469366044     -4.43108855807567
  H   0.58519617050287      1.68451873638659     -5.27514960294715
  H   0.70159284526260      3.39579197833993     -5.72047438969083
  H   0.44922825775346      2.93219257248985     -4.03580001560508
  H   3.00476514843578      2.96290907884343     -6.81005914413351
  H   2.80753037531429      1.25415203236141     -6.37667431500226
  H   5.24718070061148      2.30068483098843     -6.54286618976875
