33
Coordinates from ORCA-job 22571optt
  C   0.99370688410063      0.81910636576356     -0.30074871714118
  C   2.52248659461311      0.79173202150977     -0.27639236233305
  N   3.07583525091430      0.59260159531981      1.06035377073692
  C   3.09104797246375     -0.29624917110117     -1.19934197408659
  C   2.60478230071580     -0.13477355467545     -2.64553041785669
  O   3.09533646140603     -1.14626409348214     -3.49494304397458
  C   4.60168215538299     -0.35193208565274     -1.18080066252155
  C   5.25408476144963     -1.51689805351211     -0.93475564060351
  C   6.68274965478430     -1.55017365276929     -0.98557375028142
  C   7.61904697562631     -2.52810472893214     -0.78361363978380
  C   7.53283181967794     -3.96144598017019     -0.42009839416102
  O   8.85043228058826     -2.00508921308482     -0.97430408705756
  C   8.74158196814831     -0.70063455091436     -1.29875395845071
  C   7.42320510671908     -0.35988354200729     -1.32102833538870
  C   6.68908453689785      0.82818686231628     -1.58598669512446
  F   7.38043772599466      1.93078908733348     -1.90466117547130
  C   5.34436481212545      0.84396821065903     -1.51807478444059
  H   0.62337751300297      1.50728373394988      0.46061645222213
  H   0.59035937920581     -0.17394662470146     -0.08408189374691
  H   0.59839919065499      1.14902965579794     -1.26202945916878
  H   2.88543299238647      1.76420400857223     -0.62480489524754
  H   2.83595646268507     -0.33083861242342      1.40745688851119
  H   2.69023437522963      1.26527690044613      1.71270422887075
  H   2.71942452909279     -1.26339048098170     -0.83972104504936
  H   2.88770358306258      0.86035966464739     -3.01551030437741
  H   1.51971020746704     -0.21196957876748     -2.69135526771862
  H   4.04748783577228     -1.22293828976953     -3.36295981269314
  H   4.69436374606430     -2.41326919755224     -0.69597013550744
  H   6.48792352077743     -4.24760800155975     -0.31521169713112
  H   8.04156967299558     -4.16086685940028      0.52458653534445
  H   7.98759770966386     -4.59049725343380     -1.18731665011470
  H   9.65521843139830     -0.16395794842077     -1.47636407223681
  H   4.82654358893242      1.77119336699662     -1.72578500401686
