24
Coordinates from ORCA-job 22573optt
  C   1.06754937775974      0.04209438919883      1.19973063525065
  C   1.98698239801128     -0.17642391567941      0.01662016333219
  C   2.97310348235600      0.97621980336545     -0.23353176518993
  C   4.16864289870384      0.54762120865465      0.60642602841674
  C   4.07116363678916     -0.97364651774867      0.57021678414060
  O   4.96789686493635     -1.73779069542732      0.76192938024780
  O   2.82349783330919     -1.33155905472596      0.26368296862402
  C   5.57952918882394      0.96573011316675      0.17344705119393
  C   6.59765986238239      0.38827467666980      1.21061492416947
  O   6.45494527949825      0.60574812846871      2.37048736313844
  C   5.89301431031646      0.47664765704544     -1.17069620497115
  N   6.13011612853483      0.08533366686170     -2.21980834852261
  C   5.73213165708798      2.49590077762364      0.16946013187944
  F   5.27047959461829      3.02343431702309      1.29655020062479
  F   7.01540755154020      2.83434279779897      0.04172185549619
  F   5.06236588342110      3.05032609816771     -0.84222188174084
  H   0.37484300646738      0.85614471767357      0.98423640777715
  H   1.63534576923224      0.29918140425227      2.09587477934908
  H   0.49327611099620     -0.86038188162217      1.40287767208353
  H   1.41141937957622     -0.41434009610964     -0.87577390800997
  H   2.56039302324036      1.93887339205722      0.06138347277534
  H   3.24661843018727      1.02037449091642     -1.28896147063235
  H   4.06026764283330      0.85494350360372      1.64977131425957
  H   7.43335068937797     -0.19004898123478      0.79196244630792
